data_image0
_cell_length_a       12.6305
_cell_length_b       14.5753
_cell_length_c       22.114
_cell_angle_alpha    93.228
_cell_angle_beta     100.746
_cell_angle_gamma    98.776

_symmetry_space_group_name_H-M    "P 1"
_symmetry_int_tables_number       1

loop_
  _symmetry_equiv_pos_as_xyz
  'x, y, z'

loop_
  _atom_site_label
  _atom_site_occupancy
  _atom_site_fract_x
  _atom_site_fract_y
  _atom_site_fract_z
  _atom_site_thermal_displace_type
  _atom_site_B_iso_or_equiv
  _atom_site_type_symbol
  _atom_site_charge
  C1       1.0000 0.05150  0.38910  0.07990  Biso   1.000  C  0.569116
  C2       1.0000 0.94850  0.61090  0.92010  Biso   1.000  C  0.569359
  C3       1.0000 0.79440  0.46180  0.38760  Biso   1.000  C  0.571410
  C4       1.0000 0.20560  0.53820  0.61240  Biso   1.000  C  0.571271
  C5       1.0000 0.87580  0.40110  0.38980  Biso   1.000  C  -0.036205
  C6       1.0000 0.12420  0.59890  0.61020  Biso   1.000  C  -0.034762
  C7       1.0000 0.92770  0.38030  0.44730  Biso   1.000  C  -0.072091
  C8       1.0000 0.07230  0.61970  0.55270  Biso   1.000  C  -0.073779
  C9       1.0000 0.99920  0.31630  0.45140  Biso   1.000  C  -0.196910
  C10      1.0000 0.00080  0.68370  0.54860  Biso   1.000  C  -0.198598
  C11      1.0000 0.01880  0.27290  0.39790  Biso   1.000  C  0.333334
  C12      1.0000 0.98120  0.72710  0.60210  Biso   1.000  C  0.332114
  C13      1.0000 0.96680  0.29370  0.34030  Biso   1.000  C  -0.204009
  C14      1.0000 0.03320  0.70630  0.65970  Biso   1.000  C  -0.204598
  C15      1.0000 0.89530  0.35770  0.33630  Biso   1.000  C  -0.066785
  C16      1.0000 0.10470  0.64230  0.66370  Biso   1.000  C  -0.065989
  C17      1.0000 0.12870  0.16980  0.18936  Biso   1.000  C  0.331776
  C18      1.0000 0.87130  0.83020  0.81064  Biso   1.000  C  0.331932
  C19      1.0000 0.02130  0.17600  0.17107  Biso   1.000  C  -0.223348
  C20      1.0000 0.97870  0.82400  0.82893  Biso   1.000  C  -0.223007
  C21      1.0000 0.99470  0.25140  0.13558  Biso   1.000  C  -0.066484
  C22      1.0000 0.00530  0.74860  0.86442  Biso   1.000  C  -0.065722
  C23      1.0000 0.07440  0.31070  0.11979  Biso   1.000  C  -0.029929
  C24      1.0000 0.92560  0.68930  0.88021  Biso   1.000  C  -0.030077
  C25      1.0000 0.18640  0.30380  0.14100  Biso   1.000  C  -0.075211
  C26      1.0000 0.81360  0.69620  0.85900  Biso   1.000  C  -0.075538
  C27      1.0000 0.21610  0.23150  0.17616  Biso   1.000  C  -0.197921
  C28      1.0000 0.78390  0.76850  0.82384  Biso   1.000  C  -0.198056
  C29      1.0000 0.36630  0.09870  0.39150  Biso   1.000  C  0.311648
  C30      1.0000 0.63370  0.90130  0.60850  Biso   1.000  C  0.310975
  C31      1.0000 0.38700  0.12610  0.33510  Biso   1.000  C  -0.206203
  C32      1.0000 0.61300  0.87390  0.66490  Biso   1.000  C  -0.205365
  C33      1.0000 0.43230  0.21790  0.33020  Biso   1.000  C  -0.079893
  C34      1.0000 0.56770  0.78210  0.66980  Biso   1.000  C  -0.079443
  C35      1.0000 0.45680  0.28210  0.38180  Biso   1.000  C  -0.017850
  C36      1.0000 0.54320  0.71790  0.61820  Biso   1.000  C  -0.018952
  C37      1.0000 0.43610  0.25470  0.43820  Biso   1.000  C  -0.077178
  C38      1.0000 0.56390  0.74530  0.56180  Biso   1.000  C  -0.078042
  C39      1.0000 0.39080  0.16290  0.44310  Biso   1.000  C  -0.187488
  C40      1.0000 0.60920  0.83710  0.55690  Biso   1.000  C  -0.187071
  C41      1.0000 0.51920  0.38210  0.38290  Biso   1.000  C  0.575504
  C42      1.0000 0.48080  0.61790  0.61710  Biso   1.000  C  0.576106
  C43      1.0000 0.88710  0.98340  0.38970  Biso   1.000  C  0.309155
  C44      1.0000 0.11290  0.01660  0.61030  Biso   1.000  C  0.308852
  C45      1.0000 0.87570  0.94280  0.44400  Biso   1.000  C  -0.183319
  C46      1.0000 0.12430  0.05720  0.55600  Biso   1.000  C  -0.184029
  C47      1.0000 0.82570  0.85050  0.44160  Biso   1.000  C  -0.076571
  C48      1.0000 0.17430  0.14950  0.55840  Biso   1.000  C  -0.078219
  C49      1.0000 0.78700  0.79880  0.38490  Biso   1.000  C  -0.026742
  C50      1.0000 0.21300  0.20120  0.61510  Biso   1.000  C  -0.026947
  C51      1.0000 0.79840  0.83940  0.33060  Biso   1.000  C  -0.075371
  C52      1.0000 0.20160  0.16060  0.66940  Biso   1.000  C  -0.075271
  C53      1.0000 0.84840  0.93170  0.33300  Biso   1.000  C  -0.208854
  C54      1.0000 0.15160  0.06830  0.66700  Biso   1.000  C  -0.209088
  C55      1.0000 0.73100  0.69930  0.38430  Biso   1.000  C  0.564841
  C56      1.0000 0.26900  0.30070  0.61570  Biso   1.000  C  0.564496
  C57      1.0000 0.23750  0.81040  0.38600  Biso   1.000  C  0.321727
  C58      1.0000 0.76250  0.18960  0.61400  Biso   1.000  C  0.321201
  C59      1.0000 0.26860  0.76140  0.43670  Biso   1.000  C  -0.207651
  C60      1.0000 0.73140  0.23860  0.56330  Biso   1.000  C  -0.208611
  C61      1.0000 0.33750  0.69630  0.43330  Biso   1.000  C  -0.075708
  C62      1.0000 0.66250  0.30370  0.56670  Biso   1.000  C  -0.076779
  C63      1.0000 0.37530  0.68010  0.37920  Biso   1.000  C  -0.026437
  C64      1.0000 0.62470  0.31990  0.62080  Biso   1.000  C  -0.024584
  C65      1.0000 0.34420  0.72900  0.32850  Biso   1.000  C  -0.076795
  C66      1.0000 0.65580  0.27100  0.67150  Biso   1.000  C  -0.075247
  C67      1.0000 0.27530  0.79410  0.33190  Biso   1.000  C  -0.212240
  C68      1.0000 0.72470  0.20590  0.66810  Biso   1.000  C  -0.212094
  C69      1.0000 0.46050  0.61710  0.37920  Biso   1.000  C  0.573565
  C70      1.0000 0.53950  0.38290  0.62080  Biso   1.000  C  0.572531
  C71      1.0000 0.00360  0.88720  0.18530  Biso   1.000  C  0.328456
  C72      1.0000 0.99640  0.11280  0.81470  Biso   1.000  C  0.328460
  C73      1.0000 0.90890  0.82120  0.16970  Biso   1.000  C  -0.209321
  C74      1.0000 0.09110  0.17880  0.83030  Biso   1.000  C  -0.209506
  C75      1.0000 0.90910  0.73850  0.13520  Biso   1.000  C  -0.060121
  C76      1.0000 0.09090  0.26150  0.86480  Biso   1.000  C  -0.060491
  C77      1.0000 0.00400  0.72180  0.11640  Biso   1.000  C  -0.031454
  C78      1.0000 0.99600  0.27820  0.88360  Biso   1.000  C  -0.030641
  C79      1.0000 0.09870  0.78780  0.13210  Biso   1.000  C  -0.075474
  C80      1.0000 0.90130  0.21220  0.86790  Biso   1.000  C  -0.075369
  C81      1.0000 0.09840  0.87050  0.16650  Biso   1.000  C  -0.215628
  C82      1.0000 0.90160  0.12950  0.83350  Biso   1.000  C  -0.215823
  C83      1.0000 0.01080  0.63550  0.07660  Biso   1.000  C  0.554143
  C84      1.0000 0.98920  0.36450  0.92340  Biso   1.000  C  0.553342
  Cu1      1.0000 0.64547  0.54721  0.44246  Biso   1.000  Cu  0.875662
  Cu2      1.0000 0.35453  0.45279  0.55754  Biso   1.000  Cu  0.866054
  Cu3      1.0000 0.60834  0.53177  0.32199  Biso   1.000  Cu  0.887863
  Cu4      1.0000 0.39166  0.46823  0.67801  Biso   1.000  Cu  0.908942
  Cu5      1.0000 0.10488  0.52619  0.99979  Biso   1.000  Cu  0.926012
  Cu6      1.0000 0.89512  0.47381  0.00021  Biso   1.000  Cu  0.920750
  H1       1.0000 0.91460  0.40930  0.48310  Biso   1.000  H  0.124237
  H2       1.0000 0.08540  0.59070  0.51690  Biso   1.000  H  0.124014
  H3       1.0000 0.03400  0.30240  0.48980  Biso   1.000  H  0.141469
  H4       1.0000 0.96600  0.69760  0.51020  Biso   1.000  H  0.140780
  H5       1.0000 0.97990  0.26470  0.30450  Biso   1.000  H  0.140289
  H6       1.0000 0.02010  0.73530  0.69550  Biso   1.000  H  0.140108
  H7       1.0000 0.86050  0.37160  0.29780  Biso   1.000  H  0.130393
  H8       1.0000 0.13950  0.62840  0.70220  Biso   1.000  H  0.130831
  H9       1.0000 0.96680  0.13260  0.18130  Biso   1.000  H  0.145098
  H10      1.0000 0.03320  0.86740  0.81870  Biso   1.000  H  0.145226
  H11      1.0000 0.92230  0.25910  0.12360  Biso   1.000  H  0.133124
  H12      1.0000 0.07770  0.74090  0.87640  Biso   1.000  H  0.133610
  H13      1.0000 0.24060  0.34800  0.13140  Biso   1.000  H  0.132859
  H14      1.0000 0.75940  0.65200  0.86860  Biso   1.000  H  0.132624
  H15      1.0000 0.28860  0.22490  0.18970  Biso   1.000  H  0.152935
  H16      1.0000 0.71140  0.77510  0.81030  Biso   1.000  H  0.152852
  H17      1.0000 0.37060  0.08310  0.30060  Biso   1.000  H  0.141757
  H18      1.0000 0.62940  0.91690  0.69940  Biso   1.000  H  0.141912
  H19      1.0000 0.44620  0.23620  0.29250  Biso   1.000  H  0.122900
  H20      1.0000 0.55380  0.76380  0.70750  Biso   1.000  H  0.122436
  H21      1.0000 0.45250  0.29770  0.47270  Biso   1.000  H  0.120181
  H22      1.0000 0.54750  0.70230  0.52730  Biso   1.000  H  0.121252
  H23      1.0000 0.37690  0.14460  0.48080  Biso   1.000  H  0.140764
  H24      1.0000 0.62310  0.85540  0.51920  Biso   1.000  H  0.140102
  H25      1.0000 0.90160  0.97740  0.48200  Biso   1.000  H  0.139270
  H26      1.0000 0.09840  0.02260  0.51800  Biso   1.000  H  0.138780
  H27      1.0000 0.81810  0.82330  0.47800  Biso   1.000  H  0.122092
  H28      1.0000 0.18190  0.17670  0.52200  Biso   1.000  H  0.121491
  H29      1.0000 0.77260  0.80480  0.29270  Biso   1.000  H  0.125594
  H30      1.0000 0.22740  0.19520  0.70730  Biso   1.000  H  0.125025
  H31      1.0000 0.85600  0.95890  0.29660  Biso   1.000  H  0.137870
  H32      1.0000 0.14400  0.04110  0.70340  Biso   1.000  H  0.137778
  H33      1.0000 0.24330  0.77230  0.47290  Biso   1.000  H  0.141499
  H34      1.0000 0.75670  0.22770  0.52710  Biso   1.000  H  0.140666
  H35      1.0000 0.35820  0.66350  0.46730  Biso   1.000  H  0.121805
  H36      1.0000 0.64180  0.33650  0.53270  Biso   1.000  H  0.122879
  H37      1.0000 0.36950  0.71820  0.29230  Biso   1.000  H  0.130005
  H38      1.0000 0.63050  0.28180  0.70770  Biso   1.000  H  0.130735
  H39      1.0000 0.25460  0.82690  0.29790  Biso   1.000  H  0.135336
  H40      1.0000 0.74540  0.17310  0.70210  Biso   1.000  H  0.135413
  H41      1.0000 0.84540  0.83240  0.18220  Biso   1.000  H  0.142892
  H42      1.0000 0.15460  0.16760  0.81780  Biso   1.000  H  0.142699
  H43      1.0000 0.84570  0.69440  0.12470  Biso   1.000  H  0.132871
  H44      1.0000 0.15430  0.30560  0.87530  Biso   1.000  H  0.132912
  H45      1.0000 0.16210  0.77660  0.11950  Biso   1.000  H  0.130709
  H46      1.0000 0.83790  0.22340  0.88050  Biso   1.000  H  0.130833
  H47      1.0000 0.16180  0.91460  0.17700  Biso   1.000  H  0.138973
  H48      1.0000 0.83820  0.08540  0.82300  Biso   1.000  H  0.138880
  N1       1.0000 0.03110  0.09930  0.30190  Biso   1.000  N  -0.975043
  N2       1.0000 0.96890  0.90070  0.69810  Biso   1.000  N  -0.974437
  N3       1.0000 0.13010  0.04150  0.40680  Biso   1.000  N  -0.962481
  N4       1.0000 0.86990  0.95850  0.59320  Biso   1.000  N  -0.963079
  N5       1.0000 0.17140  0.97340  0.30120  Biso   1.000  N  -0.976793
  N6       1.0000 0.82860  0.02660  0.69880  Biso   1.000  N  -0.976811
  O1       1.0000 0.12860  0.43910  0.06280  Biso   1.000  O  -0.485782
  O2       1.0000 0.87140  0.56090  0.93720  Biso   1.000  O  -0.482963
  O3       1.0000 0.78210  0.50420  0.43750  Biso   1.000  O  -0.514205
  O4       1.0000 0.21790  0.49580  0.56250  Biso   1.000  O  -0.511167
  O5       1.0000 0.73590  0.46480  0.33420  Biso   1.000  O  -0.493527
  O6       1.0000 0.26410  0.53520  0.66580  Biso   1.000  O  -0.509248
  O7       1.0000 0.08560  0.20390  0.40410  Biso   1.000  O  -0.394910
  O8       1.0000 0.91440  0.79610  0.59590  Biso   1.000  O  -0.396093
  O9       1.0000 0.32050  0.00580  0.39540  Biso   1.000  O  -0.411896
  O10      1.0000 0.67950  0.99420  0.60460  Biso   1.000  O  -0.411967
  O11      1.0000 0.51390  0.41310  0.32940  Biso   1.000  O  -0.496389
  O12      1.0000 0.48610  0.58690  0.67060  Biso   1.000  O  -0.505301
  O13      1.0000 0.57180  0.41880  0.43320  Biso   1.000  O  -0.472005
  O14      1.0000 0.42820  0.58120  0.56680  Biso   1.000  O  -0.466876
  O15      1.0000 0.15890  0.09260  0.22110  Biso   1.000  O  -0.418406
  O16      1.0000 0.84110  0.90740  0.77890  Biso   1.000  O  -0.418535
  O17      1.0000 0.94730  0.39510  0.06270  Biso   1.000  O  -0.512791
  O18      1.0000 0.05270  0.60490  0.93730  Biso   1.000  O  -0.513894
  O19      1.0000 0.93320  0.08070  0.39270  Biso   1.000  O  -0.414394
  O20      1.0000 0.06680  0.91930  0.60730  Biso   1.000  O  -0.414113
  O21      1.0000 0.71100  0.67210  0.43440  Biso   1.000  O  -0.488049
  O22      1.0000 0.28900  0.32790  0.56560  Biso   1.000  O  -0.481632
  O23      1.0000 0.70330  0.65210  0.33020  Biso   1.000  O  -0.493991
  O24      1.0000 0.29670  0.34790  0.66980  Biso   1.000  O  -0.502714
  O25      1.0000 0.17380  0.87700  0.39620  Biso   1.000  O  -0.386836
  O26      1.0000 0.82620  0.12300  0.60380  Biso   1.000  O  -0.386918
  O27      1.0000 0.49900  0.58750  0.42880  Biso   1.000  O  -0.491343
  O28      1.0000 0.50100  0.41250  0.57120  Biso   1.000  O  -0.489196
  O29      1.0000 0.48860  0.60330  0.32710  Biso   1.000  O  -0.487904
  O30      1.0000 0.51140  0.39670  0.67290  Biso   1.000  O  -0.501406
  O31      1.0000 0.99450  0.97050  0.21510  Biso   1.000  O  -0.395400
  O32      1.0000 0.00550  0.02950  0.78490  Biso   1.000  O  -0.395384
  O33      1.0000 0.91360  0.57810  0.06150  Biso   1.000  O  -0.501424
  O34      1.0000 0.08640  0.42190  0.93850  Biso   1.000  O  -0.501444
  O35      1.0000 0.09760  0.62110  0.06070  Biso   1.000  O  -0.473080
  O36      1.0000 0.90240  0.37890  0.93930  Biso   1.000  O  -0.474741
  O37      1.0000 0.57900  0.52040  0.22440  Biso   1.000  O  -0.226845
  O38      1.0000 0.42100  0.47960  0.77560  Biso   1.000  O  -0.226268
  O39      1.0000 0.67040  0.55150  0.54030  Biso   1.000  O  -0.201496
  O40      1.0000 0.32960  0.44850  0.45970  Biso   1.000  O  -0.214079
  O41      1.0000 0.27620  0.57150  0.99850  Biso   1.000  O  -0.207016
  O42      1.0000 0.72380  0.42850  0.00150  Biso   1.000  O  -0.203252
  P1       1.0000 0.04850  0.10221  0.37446  Biso   1.000  P  1.390855
  P2       1.0000 0.95150  0.89779  0.62554  Biso   1.000  P  1.391074
  P3       1.0000 0.09000  0.03410  0.26313  Biso   1.000  P  1.356902
  P4       1.0000 0.91000  0.96590  0.73687  Biso   1.000  P  1.356722
  P5       1.0000 0.19390  0.97790  0.37269  Biso   1.000  P  1.394797
  P6       1.0000 0.80610  0.02210  0.62731  Biso   1.000  P  1.394709
