data_image0
_cell_length_a       13.923
_cell_length_b       17.382
_cell_length_c       31.841
_cell_angle_alpha    90
_cell_angle_beta     90
_cell_angle_gamma    90

_symmetry_space_group_name_H-M    "P 1"
_symmetry_int_tables_number       1

loop_
  _symmetry_equiv_pos_as_xyz
  'x, y, z'

loop_
  _atom_site_label
  _atom_site_occupancy
  _atom_site_fract_x
  _atom_site_fract_y
  _atom_site_fract_z
  _atom_site_thermal_displace_type
  _atom_site_B_iso_or_equiv
  _atom_site_type_symbol
  _atom_site_charge
  C1       1.0000 0.07530  0.07520  0.44138  Biso   1.000  C  0.583447
  C2       1.0000 0.92470  0.92480  0.44138  Biso   1.000  C  0.583471
  C3       1.0000 0.07530  0.92480  0.05862  Biso   1.000  C  0.583927
  C4       1.0000 0.92470  0.07520  0.05862  Biso   1.000  C  0.584490
  C5       1.0000 0.57530  0.57520  0.94138  Biso   1.000  C  0.584097
  C6       1.0000 0.42470  0.42480  0.94138  Biso   1.000  C  0.584384
  C7       1.0000 0.57530  0.42480  0.55862  Biso   1.000  C  0.583107
  C8       1.0000 0.42470  0.57520  0.55862  Biso   1.000  C  0.583323
  C9       1.0000 0.92470  0.92480  0.55862  Biso   1.000  C  0.583268
  C10      1.0000 0.07530  0.07520  0.55862  Biso   1.000  C  0.583193
  C11      1.0000 0.92470  0.07520  0.94138  Biso   1.000  C  0.584055
  C12      1.0000 0.07530  0.92480  0.94138  Biso   1.000  C  0.584592
  C13      1.0000 0.42470  0.42480  0.05862  Biso   1.000  C  0.584215
  C14      1.0000 0.57530  0.57520  0.05862  Biso   1.000  C  0.584342
  C15      1.0000 0.42470  0.57520  0.44138  Biso   1.000  C  0.583440
  C16      1.0000 0.57530  0.42480  0.44138  Biso   1.000  C  0.583473
  C17      1.0000 0.11200  0.11380  0.40235  Biso   1.000  C  -0.018834
  C18      1.0000 0.88800  0.88620  0.40235  Biso   1.000  C  -0.018887
  C19      1.0000 0.11200  0.88620  0.09765  Biso   1.000  C  -0.022571
  C20      1.0000 0.88800  0.11380  0.09765  Biso   1.000  C  -0.024341
  C21      1.0000 0.61200  0.61380  0.90235  Biso   1.000  C  -0.023246
  C22      1.0000 0.38800  0.38620  0.90235  Biso   1.000  C  -0.023785
  C23      1.0000 0.61200  0.38620  0.59765  Biso   1.000  C  -0.018501
  C24      1.0000 0.38800  0.61380  0.59765  Biso   1.000  C  -0.019071
  C25      1.0000 0.88800  0.88620  0.59765  Biso   1.000  C  -0.018766
  C26      1.0000 0.11200  0.11380  0.59765  Biso   1.000  C  -0.018706
  C27      1.0000 0.88800  0.11380  0.90235  Biso   1.000  C  -0.022698
  C28      1.0000 0.11200  0.88620  0.90235  Biso   1.000  C  -0.024428
  C29      1.0000 0.38800  0.38620  0.09765  Biso   1.000  C  -0.023271
  C30      1.0000 0.61200  0.61380  0.09765  Biso   1.000  C  -0.023815
  C31      1.0000 0.38800  0.61380  0.40235  Biso   1.000  C  -0.018588
  C32      1.0000 0.61200  0.38620  0.40235  Biso   1.000  C  -0.019089
  C33      1.0000 0.05830  0.16990  0.38279  Biso   1.000  C  -0.097183
  C34      1.0000 0.94170  0.83010  0.38279  Biso   1.000  C  -0.097770
  C35      1.0000 0.05830  0.83010  0.11721  Biso   1.000  C  -0.096529
  C36      1.0000 0.94170  0.16990  0.11721  Biso   1.000  C  -0.097018
  C37      1.0000 0.55830  0.66990  0.88279  Biso   1.000  C  -0.096732
  C38      1.0000 0.44170  0.33010  0.88279  Biso   1.000  C  -0.096956
  C39      1.0000 0.55830  0.33010  0.61721  Biso   1.000  C  -0.098251
  C40      1.0000 0.44170  0.66990  0.61721  Biso   1.000  C  -0.097726
  C41      1.0000 0.94170  0.83010  0.61721  Biso   1.000  C  -0.097954
  C42      1.0000 0.05830  0.16990  0.61721  Biso   1.000  C  -0.097178
  C43      1.0000 0.94170  0.16990  0.88279  Biso   1.000  C  -0.096491
  C44      1.0000 0.05830  0.83010  0.88279  Biso   1.000  C  -0.096753
  C45      1.0000 0.44170  0.33010  0.11721  Biso   1.000  C  -0.096630
  C46      1.0000 0.55830  0.66990  0.11721  Biso   1.000  C  -0.096690
  C47      1.0000 0.44170  0.66990  0.38279  Biso   1.000  C  -0.096730
  C48      1.0000 0.55830  0.33010  0.38279  Biso   1.000  C  -0.097339
  C49      1.0000 0.09240  0.20330  0.34492  Biso   1.000  C  -0.152066
  C50      1.0000 0.90760  0.79670  0.34492  Biso   1.000  C  -0.152105
  C51      1.0000 0.09240  0.79670  0.15508  Biso   1.000  C  -0.152151
  C52      1.0000 0.90760  0.20330  0.15508  Biso   1.000  C  -0.152113
  C53      1.0000 0.59240  0.70330  0.84492  Biso   1.000  C  -0.152253
  C54      1.0000 0.40760  0.29670  0.84492  Biso   1.000  C  -0.152166
  C55      1.0000 0.59240  0.29670  0.65508  Biso   1.000  C  -0.152026
  C56      1.0000 0.40760  0.70330  0.65508  Biso   1.000  C  -0.151949
  C57      1.0000 0.90760  0.79670  0.65508  Biso   1.000  C  -0.151961
  C58      1.0000 0.09240  0.20330  0.65508  Biso   1.000  C  -0.152016
  C59      1.0000 0.90760  0.20330  0.84492  Biso   1.000  C  -0.152377
  C60      1.0000 0.09240  0.79670  0.84492  Biso   1.000  C  -0.151764
  C61      1.0000 0.40760  0.29670  0.15508  Biso   1.000  C  -0.152129
  C62      1.0000 0.59240  0.70330  0.15508  Biso   1.000  C  -0.152221
  C63      1.0000 0.40760  0.70330  0.34492  Biso   1.000  C  -0.152034
  C64      1.0000 0.59240  0.29670  0.34492  Biso   1.000  C  -0.151794
  C65      1.0000 0.20160  0.09340  0.38547  Biso   1.000  C  -0.092961
  C66      1.0000 0.79840  0.90660  0.38547  Biso   1.000  C  -0.092117
  C67      1.0000 0.20160  0.90660  0.11453  Biso   1.000  C  -0.091506
  C68      1.0000 0.79840  0.09340  0.11453  Biso   1.000  C  -0.091895
  C69      1.0000 0.70160  0.59340  0.88547  Biso   1.000  C  -0.091930
  C70      1.0000 0.29840  0.40660  0.88547  Biso   1.000  C  -0.091442
  C71      1.0000 0.70160  0.40660  0.61453  Biso   1.000  C  -0.091817
  C72      1.0000 0.29840  0.59340  0.61453  Biso   1.000  C  -0.092679
  C73      1.0000 0.79840  0.90660  0.61453  Biso   1.000  C  -0.092289
  C74      1.0000 0.20160  0.09340  0.61453  Biso   1.000  C  -0.093060
  C75      1.0000 0.79840  0.09340  0.88547  Biso   1.000  C  -0.091776
  C76      1.0000 0.20160  0.90660  0.88547  Biso   1.000  C  -0.092005
  C77      1.0000 0.29840  0.40660  0.11453  Biso   1.000  C  -0.091905
  C78      1.0000 0.70160  0.59340  0.11453  Biso   1.000  C  -0.091967
  C79      1.0000 0.29840  0.59340  0.38547  Biso   1.000  C  -0.093274
  C80      1.0000 0.70160  0.40660  0.38547  Biso   1.000  C  -0.092777
  C81      1.0000 0.23360  0.12580  0.34835  Biso   1.000  C  -0.151118
  C82      1.0000 0.76640  0.87420  0.34835  Biso   1.000  C  -0.150960
  C83      1.0000 0.23360  0.87420  0.15165  Biso   1.000  C  -0.151430
  C84      1.0000 0.76640  0.12580  0.15165  Biso   1.000  C  -0.151040
  C85      1.0000 0.73360  0.62580  0.84835  Biso   1.000  C  -0.151476
  C86      1.0000 0.26640  0.37420  0.84835  Biso   1.000  C  -0.151033
  C87      1.0000 0.73360  0.37420  0.65165  Biso   1.000  C  -0.151187
  C88      1.0000 0.26640  0.62580  0.65165  Biso   1.000  C  -0.151072
  C89      1.0000 0.76640  0.87420  0.65165  Biso   1.000  C  -0.151293
  C90      1.0000 0.23360  0.12580  0.65165  Biso   1.000  C  -0.151273
  C91      1.0000 0.76640  0.12580  0.84835  Biso   1.000  C  -0.151606
  C92      1.0000 0.23360  0.87420  0.84835  Biso   1.000  C  -0.150960
  C93      1.0000 0.26640  0.37420  0.15165  Biso   1.000  C  -0.151452
  C94      1.0000 0.73360  0.62580  0.15165  Biso   1.000  C  -0.151165
  C95      1.0000 0.26640  0.62580  0.34835  Biso   1.000  C  -0.151230
  C96      1.0000 0.73360  0.37420  0.34835  Biso   1.000  C  -0.150983
  C97      1.0000 0.17820  0.18010  0.32753  Biso   1.000  C  0.096874
  C98      1.0000 0.82180  0.81990  0.32753  Biso   1.000  C  0.096839
  C99      1.0000 0.17820  0.81990  0.17247  Biso   1.000  C  0.096775
  C100     1.0000 0.82180  0.18010  0.17247  Biso   1.000  C  0.097212
  C101     1.0000 0.67820  0.68010  0.82753  Biso   1.000  C  0.096884
  C102     1.0000 0.32180  0.31990  0.82753  Biso   1.000  C  0.097053
  C103     1.0000 0.67820  0.31990  0.67247  Biso   1.000  C  0.096738
  C104     1.0000 0.32180  0.68010  0.67247  Biso   1.000  C  0.096892
  C105     1.0000 0.82180  0.81990  0.67247  Biso   1.000  C  0.096796
  C106     1.0000 0.17820  0.18010  0.67247  Biso   1.000  C  0.096772
  C107     1.0000 0.82180  0.18010  0.82753  Biso   1.000  C  0.096766
  C108     1.0000 0.17820  0.81990  0.82753  Biso   1.000  C  0.097227
  C109     1.0000 0.32180  0.31990  0.17247  Biso   1.000  C  0.096959
  C110     1.0000 0.67820  0.68010  0.17247  Biso   1.000  C  0.097020
  C111     1.0000 0.32180  0.68010  0.32753  Biso   1.000  C  0.096785
  C112     1.0000 0.67820  0.31990  0.32753  Biso   1.000  C  0.096967
  C113     1.0000 0.21330  0.21500  0.28683  Biso   1.000  C  -0.028105
  C114     1.0000 0.78670  0.78500  0.28683  Biso   1.000  C  -0.027915
  C115     1.0000 0.21330  0.78500  0.21317  Biso   1.000  C  -0.027737
  C116     1.0000 0.78670  0.21500  0.21317  Biso   1.000  C  -0.028399
  C117     1.0000 0.71330  0.71500  0.78683  Biso   1.000  C  -0.028104
  C118     1.0000 0.28670  0.28500  0.78683  Biso   1.000  C  -0.028073
  C119     1.0000 0.71330  0.28500  0.71317  Biso   1.000  C  -0.027811
  C120     1.0000 0.28670  0.71500  0.71317  Biso   1.000  C  -0.027953
  C121     1.0000 0.78670  0.78500  0.71317  Biso   1.000  C  -0.028027
  C122     1.0000 0.21330  0.21500  0.71317  Biso   1.000  C  -0.027922
  C123     1.0000 0.78670  0.21500  0.78683  Biso   1.000  C  -0.027920
  C124     1.0000 0.21330  0.78500  0.78683  Biso   1.000  C  -0.028155
  C125     1.0000 0.28670  0.28500  0.21317  Biso   1.000  C  -0.028203
  C126     1.0000 0.71330  0.71500  0.21317  Biso   1.000  C  -0.028113
  C127     1.0000 0.28670  0.71500  0.28683  Biso   1.000  C  -0.027815
  C128     1.0000 0.71330  0.28500  0.28683  Biso   1.000  C  -0.028113
  C129     1.0000 0.27090  0.28360  0.29020  Biso   1.000  C  0.018780
  C130     1.0000 0.72910  0.71640  0.29020  Biso   1.000  C  0.018744
  C131     1.0000 0.27090  0.71640  0.20980  Biso   1.000  C  0.018674
  C132     1.0000 0.72910  0.28360  0.20980  Biso   1.000  C  0.018804
  C133     1.0000 0.77090  0.78360  0.79020  Biso   1.000  C  0.018756
  C134     1.0000 0.22910  0.21640  0.79020  Biso   1.000  C  0.018750
  C135     1.0000 0.77090  0.21640  0.70980  Biso   1.000  C  0.018713
  C136     1.0000 0.22910  0.78360  0.70980  Biso   1.000  C  0.018704
  C137     1.0000 0.72910  0.71640  0.70980  Biso   1.000  C  0.018743
  C138     1.0000 0.27090  0.28360  0.70980  Biso   1.000  C  0.018750
  C139     1.0000 0.72910  0.28360  0.79020  Biso   1.000  C  0.018759
  C140     1.0000 0.27090  0.71640  0.79020  Biso   1.000  C  0.018678
  C141     1.0000 0.22910  0.21640  0.20980  Biso   1.000  C  0.018776
  C142     1.0000 0.77090  0.78360  0.20980  Biso   1.000  C  0.018776
  C143     1.0000 0.22910  0.78360  0.29020  Biso   1.000  C  0.018710
  C144     1.0000 0.77090  0.21640  0.29020  Biso   1.000  C  0.018753
  C145     1.0000 0.11840  0.08450  0.20620  Biso   1.000  C  -0.076631
  C146     1.0000 0.88160  0.91550  0.20620  Biso   1.000  C  -0.076634
  C147     1.0000 0.11840  0.91550  0.29380  Biso   1.000  C  -0.076571
  C148     1.0000 0.88160  0.08450  0.29380  Biso   1.000  C  -0.076583
  C149     1.0000 0.61840  0.58450  0.70620  Biso   1.000  C  -0.076585
  C150     1.0000 0.38160  0.41550  0.70620  Biso   1.000  C  -0.076544
  C151     1.0000 0.61840  0.41550  0.79380  Biso   1.000  C  -0.076593
  C152     1.0000 0.38160  0.58450  0.79380  Biso   1.000  C  -0.076681
  C153     1.0000 0.88160  0.91550  0.79380  Biso   1.000  C  -0.076641
  C154     1.0000 0.11840  0.08450  0.79380  Biso   1.000  C  -0.076673
  C155     1.0000 0.88160  0.08450  0.70620  Biso   1.000  C  -0.076612
  C156     1.0000 0.11840  0.91550  0.70620  Biso   1.000  C  -0.076560
  C157     1.0000 0.38160  0.41550  0.29380  Biso   1.000  C  -0.076593
  C158     1.0000 0.61840  0.58450  0.29380  Biso   1.000  C  -0.076606
  C159     1.0000 0.38160  0.58450  0.20620  Biso   1.000  C  -0.076660
  C160     1.0000 0.61840  0.41550  0.20620  Biso   1.000  C  -0.076631
  C161     1.0000 0.19280  0.18220  0.24834  Biso   1.000  C  0.027061
  C162     1.0000 0.80720  0.81780  0.24834  Biso   1.000  C  0.027007
  C163     1.0000 0.19280  0.81780  0.25166  Biso   1.000  C  0.026979
  C164     1.0000 0.80720  0.18220  0.25166  Biso   1.000  C  0.027109
  C165     1.0000 0.69280  0.68220  0.74834  Biso   1.000  C  0.027047
  C166     1.0000 0.30720  0.31780  0.74834  Biso   1.000  C  0.027028
  C167     1.0000 0.69280  0.31780  0.75166  Biso   1.000  C  0.026985
  C168     1.0000 0.30720  0.68220  0.75166  Biso   1.000  C  0.027001
  C169     1.0000 0.80720  0.81780  0.75166  Biso   1.000  C  0.027011
  C170     1.0000 0.19280  0.18220  0.75166  Biso   1.000  C  0.027019
  C171     1.0000 0.80720  0.18220  0.74834  Biso   1.000  C  0.027031
  C172     1.0000 0.19280  0.81780  0.74834  Biso   1.000  C  0.027003
  C173     1.0000 0.30720  0.31780  0.25166  Biso   1.000  C  0.027079
  C174     1.0000 0.69280  0.68220  0.25166  Biso   1.000  C  0.027037
  C175     1.0000 0.30720  0.68220  0.24834  Biso   1.000  C  0.026977
  C176     1.0000 0.69280  0.31780  0.24834  Biso   1.000  C  0.027041
  C177     1.0000 0.13490  0.11360  0.24320  Biso   1.000  C  -0.129561
  C178     1.0000 0.86510  0.88640  0.24320  Biso   1.000  C  -0.129435
  C179     1.0000 0.13490  0.88640  0.25680  Biso   1.000  C  -0.129477
  C180     1.0000 0.86510  0.11360  0.25680  Biso   1.000  C  -0.129894
  C181     1.0000 0.63490  0.61360  0.74320  Biso   1.000  C  -0.129668
  C182     1.0000 0.36510  0.38640  0.74320  Biso   1.000  C  -0.129621
  C183     1.0000 0.63490  0.38640  0.75680  Biso   1.000  C  -0.129352
  C184     1.0000 0.36510  0.61360  0.75680  Biso   1.000  C  -0.129586
  C185     1.0000 0.86510  0.88640  0.75680  Biso   1.000  C  -0.129472
  C186     1.0000 0.13490  0.11360  0.75680  Biso   1.000  C  -0.129490
  C187     1.0000 0.86510  0.11360  0.74320  Biso   1.000  C  -0.129646
  C188     1.0000 0.13490  0.88640  0.74320  Biso   1.000  C  -0.129673
  C189     1.0000 0.36510  0.38640  0.25680  Biso   1.000  C  -0.129688
  C190     1.0000 0.63490  0.61360  0.25680  Biso   1.000  C  -0.129702
  C191     1.0000 0.36510  0.61360  0.24320  Biso   1.000  C  -0.129525
  C192     1.0000 0.63490  0.38640  0.24320  Biso   1.000  C  -0.129511
  C193     1.0000 0.29320  0.32300  0.33000  Biso   1.000  C  -0.125720
  C194     1.0000 0.70680  0.67700  0.33000  Biso   1.000  C  -0.125447
  C195     1.0000 0.29320  0.67700  0.17000  Biso   1.000  C  -0.125398
  C196     1.0000 0.70680  0.32300  0.17000  Biso   1.000  C  -0.126060
  C197     1.0000 0.79320  0.82300  0.83000  Biso   1.000  C  -0.125919
  C198     1.0000 0.20680  0.17700  0.83000  Biso   1.000  C  -0.125673
  C199     1.0000 0.79320  0.17700  0.67000  Biso   1.000  C  -0.125328
  C200     1.0000 0.20680  0.82300  0.67000  Biso   1.000  C  -0.125725
  C201     1.0000 0.70680  0.67700  0.67000  Biso   1.000  C  -0.125706
  C202     1.0000 0.29320  0.32300  0.67000  Biso   1.000  C  -0.125667
  C203     1.0000 0.70680  0.32300  0.83000  Biso   1.000  C  -0.125857
  C204     1.0000 0.29320  0.67700  0.83000  Biso   1.000  C  -0.125611
  C205     1.0000 0.20680  0.17700  0.17000  Biso   1.000  C  -0.125882
  C206     1.0000 0.79320  0.82300  0.17000  Biso   1.000  C  -0.125771
  C207     1.0000 0.20680  0.82300  0.33000  Biso   1.000  C  -0.125589
  C208     1.0000 0.79320  0.17700  0.33000  Biso   1.000  C  -0.125433
  C209     1.0000 0.15280  0.11540  0.16840  Biso   1.000  C  -0.071715
  C210     1.0000 0.84720  0.88460  0.16840  Biso   1.000  C  -0.071879
  C211     1.0000 0.15280  0.88460  0.33160  Biso   1.000  C  -0.071497
  C212     1.0000 0.84720  0.11540  0.33160  Biso   1.000  C  -0.071203
  C213     1.0000 0.65280  0.61540  0.66840  Biso   1.000  C  -0.071340
  C214     1.0000 0.34720  0.38460  0.66840  Biso   1.000  C  -0.071493
  C215     1.0000 0.65280  0.38460  0.83160  Biso   1.000  C  -0.071916
  C216     1.0000 0.34720  0.61540  0.83160  Biso   1.000  C  -0.071440
  C217     1.0000 0.84720  0.88460  0.83160  Biso   1.000  C  -0.071863
  C218     1.0000 0.15280  0.11540  0.83160  Biso   1.000  C  -0.071749
  C219     1.0000 0.84720  0.11540  0.66840  Biso   1.000  C  -0.071179
  C220     1.0000 0.15280  0.88460  0.66840  Biso   1.000  C  -0.071508
  C221     1.0000 0.34720  0.38460  0.33160  Biso   1.000  C  -0.071598
  C222     1.0000 0.65280  0.61540  0.33160  Biso   1.000  C  -0.071479
  C223     1.0000 0.34720  0.61540  0.16840  Biso   1.000  C  -0.071479
  C224     1.0000 0.65280  0.38460  0.16840  Biso   1.000  C  -0.071971
  Cu1      1.0000 0.07460  0.95277  0.50000  Biso   1.000  Cu  0.877887
  Cu2      1.0000 0.92540  0.04723  0.50000  Biso   1.000  Cu  0.935092
  Cu3      1.0000 0.07460  0.04723  0.00000  Biso   1.000  Cu  0.920900
  Cu4      1.0000 0.92540  0.95277  0.00000  Biso   1.000  Cu  0.914726
  Cu5      1.0000 0.57460  0.45277  0.00000  Biso   1.000  Cu  0.912112
  Cu6      1.0000 0.42540  0.54723  0.00000  Biso   1.000  Cu  0.922151
  Cu7      1.0000 0.57460  0.54723  0.50000  Biso   1.000  Cu  0.933580
  Cu8      1.0000 0.42540  0.45277  0.50000  Biso   1.000  Cu  0.877909
  H1       1.0000 0.99900  0.18620  0.39450  Biso   1.000  H  0.127582
  H2       1.0000 0.00100  0.81380  0.39450  Biso   1.000  H  0.127050
  H3       1.0000 0.99900  0.81380  0.10550  Biso   1.000  H  0.127037
  H4       1.0000 0.00100  0.18620  0.10550  Biso   1.000  H  0.126617
  H5       1.0000 0.49900  0.68620  0.89450  Biso   1.000  H  0.127148
  H6       1.0000 0.50100  0.31380  0.89450  Biso   1.000  H  0.126597
  H7       1.0000 0.49900  0.31380  0.60550  Biso   1.000  H  0.126759
  H8       1.0000 0.50100  0.68620  0.60550  Biso   1.000  H  0.127103
  H9       1.0000 0.00100  0.81380  0.60550  Biso   1.000  H  0.126986
  H10      1.0000 0.99900  0.18620  0.60550  Biso   1.000  H  0.127471
  H11      1.0000 0.00100  0.18620  0.89450  Biso   1.000  H  0.127306
  H12      1.0000 0.99900  0.81380  0.89450  Biso   1.000  H  0.126645
  H13      1.0000 0.50100  0.31380  0.10550  Biso   1.000  H  0.126957
  H14      1.0000 0.49900  0.68620  0.10550  Biso   1.000  H  0.127027
  H15      1.0000 0.50100  0.68620  0.39450  Biso   1.000  H  0.127741
  H16      1.0000 0.49900  0.31380  0.39450  Biso   1.000  H  0.127279
  H17      1.0000 0.05560  0.24200  0.33140  Biso   1.000  H  0.120816
  H18      1.0000 0.94440  0.75800  0.33140  Biso   1.000  H  0.120755
  H19      1.0000 0.05560  0.75800  0.16860  Biso   1.000  H  0.120663
  H20      1.0000 0.94440  0.24200  0.16860  Biso   1.000  H  0.120754
  H21      1.0000 0.55560  0.74200  0.83140  Biso   1.000  H  0.120732
  H22      1.0000 0.44440  0.25800  0.83140  Biso   1.000  H  0.120706
  H23      1.0000 0.55560  0.25800  0.66860  Biso   1.000  H  0.120742
  H24      1.0000 0.44440  0.74200  0.66860  Biso   1.000  H  0.120843
  H25      1.0000 0.94440  0.75800  0.66860  Biso   1.000  H  0.120842
  H26      1.0000 0.05560  0.24200  0.66860  Biso   1.000  H  0.120857
  H27      1.0000 0.94440  0.24200  0.83140  Biso   1.000  H  0.120715
  H28      1.0000 0.05560  0.75800  0.83140  Biso   1.000  H  0.120771
  H29      1.0000 0.44440  0.25800  0.16860  Biso   1.000  H  0.120751
  H30      1.0000 0.55560  0.74200  0.16860  Biso   1.000  H  0.120731
  H31      1.0000 0.44440  0.74200  0.33140  Biso   1.000  H  0.120858
  H32      1.0000 0.55560  0.25800  0.33140  Biso   1.000  H  0.120866
  H33      1.0000 0.24070  0.05700  0.39970  Biso   1.000  H  0.124643
  H34      1.0000 0.75930  0.94300  0.39970  Biso   1.000  H  0.124951
  H35      1.0000 0.24070  0.94300  0.10030  Biso   1.000  H  0.124983
  H36      1.0000 0.75930  0.05700  0.10030  Biso   1.000  H  0.124456
  H37      1.0000 0.74070  0.55700  0.89970  Biso   1.000  H  0.124846
  H38      1.0000 0.25930  0.44300  0.89970  Biso   1.000  H  0.124735
  H39      1.0000 0.74070  0.44300  0.60030  Biso   1.000  H  0.125430
  H40      1.0000 0.25930  0.55700  0.60030  Biso   1.000  H  0.125039
  H41      1.0000 0.75930  0.94300  0.60030  Biso   1.000  H  0.125169
  H42      1.0000 0.24070  0.05700  0.60030  Biso   1.000  H  0.124736
  H43      1.0000 0.75930  0.05700  0.89970  Biso   1.000  H  0.124828
  H44      1.0000 0.24070  0.94300  0.89970  Biso   1.000  H  0.124277
  H45      1.0000 0.25930  0.44300  0.10030  Biso   1.000  H  0.124867
  H46      1.0000 0.74070  0.55700  0.10030  Biso   1.000  H  0.124458
  H47      1.0000 0.25930  0.55700  0.39970  Biso   1.000  H  0.124434
  H48      1.0000 0.74070  0.44300  0.39970  Biso   1.000  H  0.124723
  H49      1.0000 0.29390  0.11070  0.33700  Biso   1.000  H  0.120067
  H50      1.0000 0.70610  0.88930  0.33700  Biso   1.000  H  0.120040
  H51      1.0000 0.29390  0.88930  0.16300  Biso   1.000  H  0.119892
  H52      1.0000 0.70610  0.11070  0.16300  Biso   1.000  H  0.120051
  H53      1.0000 0.79390  0.61070  0.83700  Biso   1.000  H  0.119942
  H54      1.0000 0.20610  0.38930  0.83700  Biso   1.000  H  0.119998
  H55      1.0000 0.79390  0.38930  0.66300  Biso   1.000  H  0.120043
  H56      1.0000 0.20610  0.61070  0.66300  Biso   1.000  H  0.120107
  H57      1.0000 0.70610  0.88930  0.66300  Biso   1.000  H  0.120070
  H58      1.0000 0.29390  0.11070  0.66300  Biso   1.000  H  0.120040
  H59      1.0000 0.70610  0.11070  0.83700  Biso   1.000  H  0.119922
  H60      1.0000 0.29390  0.88930  0.83700  Biso   1.000  H  0.120006
  H61      1.0000 0.20610  0.38930  0.16300  Biso   1.000  H  0.119921
  H62      1.0000 0.79390  0.61070  0.16300  Biso   1.000  H  0.119944
  H63      1.0000 0.20610  0.61070  0.33700  Biso   1.000  H  0.119975
  H64      1.0000 0.79390  0.38930  0.33700  Biso   1.000  H  0.120008
  H65      1.0000 0.08040  0.03920  0.20470  Biso   1.000  H  0.093130
  H66      1.0000 0.91960  0.96080  0.20470  Biso   1.000  H  0.093132
  H67      1.0000 0.08040  0.96080  0.29530  Biso   1.000  H  0.093155
  H68      1.0000 0.91960  0.03920  0.29530  Biso   1.000  H  0.093126
  H69      1.0000 0.58040  0.53920  0.70470  Biso   1.000  H  0.093119
  H70      1.0000 0.41960  0.46080  0.70470  Biso   1.000  H  0.093137
  H71      1.0000 0.58040  0.46080  0.79530  Biso   1.000  H  0.093158
  H72      1.0000 0.41960  0.53920  0.79530  Biso   1.000  H  0.093063
  H73      1.0000 0.91960  0.96080  0.79530  Biso   1.000  H  0.093129
  H74      1.0000 0.08040  0.03920  0.79530  Biso   1.000  H  0.093100
  H75      1.0000 0.91960  0.03920  0.70470  Biso   1.000  H  0.093130
  H76      1.0000 0.08040  0.96080  0.70470  Biso   1.000  H  0.093128
  H77      1.0000 0.41960  0.46080  0.29530  Biso   1.000  H  0.093142
  H78      1.0000 0.58040  0.53920  0.29530  Biso   1.000  H  0.093127
  H79      1.0000 0.41960  0.53920  0.20470  Biso   1.000  H  0.093096
  H80      1.0000 0.58040  0.46080  0.20470  Biso   1.000  H  0.093147
  H81      1.0000 0.10840  0.08930  0.26740  Biso   1.000  H  0.101655
  H82      1.0000 0.89160  0.91070  0.26740  Biso   1.000  H  0.101672
  H83      1.0000 0.10840  0.91070  0.23260  Biso   1.000  H  0.101596
  H84      1.0000 0.89160  0.08930  0.23260  Biso   1.000  H  0.101539
  H85      1.0000 0.60840  0.58930  0.76740  Biso   1.000  H  0.101569
  H86      1.0000 0.39160  0.41070  0.76740  Biso   1.000  H  0.101569
  H87      1.0000 0.60840  0.41070  0.73260  Biso   1.000  H  0.101675
  H88      1.0000 0.39160  0.58930  0.73260  Biso   1.000  H  0.101575
  H89      1.0000 0.89160  0.91070  0.73260  Biso   1.000  H  0.101652
  H90      1.0000 0.10840  0.08930  0.73260  Biso   1.000  H  0.101645
  H91      1.0000 0.89160  0.08930  0.76740  Biso   1.000  H  0.101580
  H92      1.0000 0.10840  0.91070  0.76740  Biso   1.000  H  0.101518
  H93      1.0000 0.39160  0.41070  0.23260  Biso   1.000  H  0.101597
  H94      1.0000 0.60840  0.58930  0.23260  Biso   1.000  H  0.101568
  H95      1.0000 0.39160  0.58930  0.26740  Biso   1.000  H  0.101612
  H96      1.0000 0.60840  0.41070  0.26740  Biso   1.000  H  0.101662
  H97      1.0000 0.26740  0.30300  0.35530  Biso   1.000  H  0.115816
  H98      1.0000 0.73260  0.69700  0.35530  Biso   1.000  H  0.116083
  H99      1.0000 0.26740  0.69700  0.14470  Biso   1.000  H  0.115923
  H100     1.0000 0.73260  0.30300  0.14470  Biso   1.000  H  0.115906
  H101     1.0000 0.76740  0.80300  0.85530  Biso   1.000  H  0.115807
  H102     1.0000 0.23260  0.19700  0.85530  Biso   1.000  H  0.115901
  H103     1.0000 0.76740  0.19700  0.64470  Biso   1.000  H  0.115946
  H104     1.0000 0.23260  0.80300  0.64470  Biso   1.000  H  0.115779
  H105     1.0000 0.73260  0.69700  0.64470  Biso   1.000  H  0.116000
  H106     1.0000 0.26740  0.30300  0.64470  Biso   1.000  H  0.115851
  H107     1.0000 0.73260  0.30300  0.85530  Biso   1.000  H  0.115972
  H108     1.0000 0.26740  0.69700  0.85530  Biso   1.000  H  0.115766
  H109     1.0000 0.23260  0.19700  0.14470  Biso   1.000  H  0.115780
  H110     1.0000 0.76740  0.80300  0.14470  Biso   1.000  H  0.115848
  H111     1.0000 0.23260  0.80300  0.35530  Biso   1.000  H  0.115835
  H112     1.0000 0.76740  0.19700  0.35530  Biso   1.000  H  0.116011
  H113     1.0000 0.13730  0.09220  0.14230  Biso   1.000  H  0.115593
  H114     1.0000 0.86270  0.90780  0.14230  Biso   1.000  H  0.115290
  H115     1.0000 0.13730  0.90780  0.35770  Biso   1.000  H  0.115800
  H116     1.0000 0.86270  0.09220  0.35770  Biso   1.000  H  0.116131
  H117     1.0000 0.63730  0.59220  0.64230  Biso   1.000  H  0.116032
  H118     1.0000 0.36270  0.40780  0.64230  Biso   1.000  H  0.115730
  H119     1.0000 0.63730  0.40780  0.85770  Biso   1.000  H  0.115430
  H120     1.0000 0.36270  0.59220  0.85770  Biso   1.000  H  0.115672
  H121     1.0000 0.86270  0.90780  0.85770  Biso   1.000  H  0.115296
  H122     1.0000 0.13730  0.09220  0.85770  Biso   1.000  H  0.115456
  H123     1.0000 0.86270  0.09220  0.64230  Biso   1.000  H  0.116146
  H124     1.0000 0.13730  0.90780  0.64230  Biso   1.000  H  0.115765
  H125     1.0000 0.36270  0.40780  0.35770  Biso   1.000  H  0.115693
  H126     1.0000 0.63730  0.59220  0.35770  Biso   1.000  H  0.115997
  H127     1.0000 0.36270  0.59220  0.14230  Biso   1.000  H  0.115704
  H128     1.0000 0.63730  0.40780  0.14230  Biso   1.000  H  0.115380
  O1       1.0000 0.12444  0.02015  0.45588  Biso   1.000  O  -0.508782
  O2       1.0000 0.87556  0.97985  0.45588  Biso   1.000  O  -0.516514
  O3       1.0000 0.12444  0.97985  0.04412  Biso   1.000  O  -0.515880
  O4       1.0000 0.87556  0.02015  0.04412  Biso   1.000  O  -0.509563
  O5       1.0000 0.62444  0.52015  0.95588  Biso   1.000  O  -0.513175
  O6       1.0000 0.37556  0.47985  0.95588  Biso   1.000  O  -0.511673
  O7       1.0000 0.62444  0.47985  0.54412  Biso   1.000  O  -0.521147
  O8       1.0000 0.37556  0.52015  0.54412  Biso   1.000  O  -0.510090
  O9       1.0000 0.87556  0.97985  0.54412  Biso   1.000  O  -0.517946
  O10      1.0000 0.12444  0.02015  0.54412  Biso   1.000  O  -0.509448
  O11      1.0000 0.87556  0.02015  0.95588  Biso   1.000  O  -0.514524
  O12      1.0000 0.12444  0.97985  0.95588  Biso   1.000  O  -0.509422
  O13      1.0000 0.37556  0.47985  0.04412  Biso   1.000  O  -0.512411
  O14      1.0000 0.62444  0.52015  0.04412  Biso   1.000  O  -0.510598
  O15      1.0000 0.37556  0.52015  0.45588  Biso   1.000  O  -0.507908
  O16      1.0000 0.62444  0.47985  0.45588  Biso   1.000  O  -0.514057
  O17      1.0000 0.19210  0.87250  0.50000  Biso   1.000  O  -0.249061
  O18      1.0000 0.80790  0.12750  0.50000  Biso   1.000  O  -0.277246
  O19      1.0000 0.19210  0.12750  0.00000  Biso   1.000  O  -0.271862
  O20      1.0000 0.80790  0.87250  0.00000  Biso   1.000  O  -0.267775
  O21      1.0000 0.69210  0.37250  0.00000  Biso   1.000  O  -0.265627
  O22      1.0000 0.30790  0.62750  0.00000  Biso   1.000  O  -0.274304
  O23      1.0000 0.69210  0.62750  0.50000  Biso   1.000  O  -0.275708
  O24      1.0000 0.30790  0.37250  0.50000  Biso   1.000  O  -0.249817
  O25      1.0000 0.99707  0.10030  0.45579  Biso   1.000  O  -0.514940
  O26      1.0000 0.00293  0.89970  0.45579  Biso   1.000  O  -0.507594
  O27      1.0000 0.99707  0.89970  0.04421  Biso   1.000  O  -0.511610
  O28      1.0000 0.00293  0.10030  0.04421  Biso   1.000  O  -0.506773
  O29      1.0000 0.49707  0.60030  0.95579  Biso   1.000  O  -0.510215
  O30      1.0000 0.50293  0.39970  0.95579  Biso   1.000  O  -0.507892
  O31      1.0000 0.49707  0.39970  0.54421  Biso   1.000  O  -0.505536
  O32      1.0000 0.50293  0.60030  0.54421  Biso   1.000  O  -0.511561
  O33      1.0000 0.00293  0.89970  0.54421  Biso   1.000  O  -0.506699
  O34      1.0000 0.99707  0.10030  0.54421  Biso   1.000  O  -0.514783
  O35      1.0000 0.00293  0.10030  0.95579  Biso   1.000  O  -0.512802
  O36      1.0000 0.99707  0.89970  0.95579  Biso   1.000  O  -0.506777
  O37      1.0000 0.50293  0.39970  0.04421  Biso   1.000  O  -0.510654
  O38      1.0000 0.49707  0.60030  0.04421  Biso   1.000  O  -0.509327
  O39      1.0000 0.50293  0.60030  0.45579  Biso   1.000  O  -0.517642
  O40      1.0000 0.49707  0.39970  0.45579  Biso   1.000  O  -0.508159
