data_image0
_cell_length_a       18.066
_cell_length_b       20.762
_cell_length_c       15.24
_cell_angle_alpha    90
_cell_angle_beta     90
_cell_angle_gamma    90

_symmetry_space_group_name_H-M    "P 1"
_symmetry_int_tables_number       1

loop_
  _symmetry_equiv_pos_as_xyz
  'x, y, z'

loop_
  _atom_site_label
  _atom_site_occupancy
  _atom_site_fract_x
  _atom_site_fract_y
  _atom_site_fract_z
  _atom_site_thermal_displace_type
  _atom_site_B_iso_or_equiv
  _atom_site_type_symbol
  _atom_site_charge
  C1       1.0000 0.03210  0.90830  0.13240  Biso   1.000  C  0.611656
  C2       1.0000 0.96790  0.09170  0.13240  Biso   1.000  C  0.611657
  C3       1.0000 0.96790  0.90830  0.63240  Biso   1.000  C  0.611657
  C4       1.0000 0.03210  0.09170  0.63240  Biso   1.000  C  0.611657
  C5       1.0000 0.53210  0.40830  0.13240  Biso   1.000  C  0.611657
  C6       1.0000 0.46790  0.59170  0.13240  Biso   1.000  C  0.611656
  C7       1.0000 0.46790  0.40830  0.63240  Biso   1.000  C  0.611657
  C8       1.0000 0.53210  0.59170  0.63240  Biso   1.000  C  0.611657
  C9       1.0000 0.81510  0.76450  0.92970  Biso   1.000  C  0.022457
  C10      1.0000 0.18490  0.23550  0.92970  Biso   1.000  C  0.022457
  C11      1.0000 0.18490  0.76450  0.42970  Biso   1.000  C  0.022457
  C12      1.0000 0.81510  0.23550  0.42970  Biso   1.000  C  0.022457
  C13      1.0000 0.31510  0.26450  0.92970  Biso   1.000  C  0.022457
  C14      1.0000 0.68490  0.73550  0.92970  Biso   1.000  C  0.022457
  C15      1.0000 0.68490  0.26450  0.42970  Biso   1.000  C  0.022457
  C16      1.0000 0.31510  0.73550  0.42970  Biso   1.000  C  0.022457
  C17      1.0000 0.74770  0.80840  0.64860  Biso   1.000  C  0.129649
  C18      1.0000 0.25230  0.19160  0.64860  Biso   1.000  C  0.129649
  C19      1.0000 0.25230  0.80840  0.14860  Biso   1.000  C  0.129649
  C20      1.0000 0.74770  0.19160  0.14860  Biso   1.000  C  0.129649
  C21      1.0000 0.24770  0.30840  0.64860  Biso   1.000  C  0.129649
  C22      1.0000 0.75230  0.69160  0.64860  Biso   1.000  C  0.129649
  C23      1.0000 0.75230  0.30840  0.14860  Biso   1.000  C  0.129649
  C24      1.0000 0.24770  0.69160  0.14860  Biso   1.000  C  0.129649
  C25      1.0000 0.75000  0.75000  0.69280  Biso   1.000  C  -0.066756
  C26      1.0000 0.25000  0.25000  0.69280  Biso   1.000  C  -0.066756
  C27      1.0000 0.25000  0.75000  0.19280  Biso   1.000  C  -0.066756
  C28      1.0000 0.75000  0.25000  0.19280  Biso   1.000  C  -0.066756
  C29      1.0000 0.75000  0.75000  0.79620  Biso   1.000  C  -0.066652
  C30      1.0000 0.25000  0.25000  0.79620  Biso   1.000  C  -0.066653
  C31      1.0000 0.25000  0.75000  0.29620  Biso   1.000  C  -0.066653
  C32      1.0000 0.75000  0.25000  0.29620  Biso   1.000  C  -0.066653
  C33      1.0000 0.88660  0.77330  0.78730  Biso   1.000  C  -0.524062
  C34      1.0000 0.11340  0.22670  0.78730  Biso   1.000  C  -0.524062
  C35      1.0000 0.11340  0.77330  0.28730  Biso   1.000  C  -0.524062
  C36      1.0000 0.88660  0.22670  0.28730  Biso   1.000  C  -0.524062
  C37      1.0000 0.38660  0.27330  0.78730  Biso   1.000  C  -0.524062
  C38      1.0000 0.61340  0.72670  0.78730  Biso   1.000  C  -0.524062
  C39      1.0000 0.61340  0.27330  0.28730  Biso   1.000  C  -0.524062
  C40      1.0000 0.38660  0.72670  0.28730  Biso   1.000  C  -0.524062
  C41      1.0000 0.74920  0.86580  0.50000  Biso   1.000  C  0.120263
  C42      1.0000 0.25080  0.13420  0.50000  Biso   1.000  C  0.120263
  C43      1.0000 0.25080  0.86580  0.00000  Biso   1.000  C  0.120263
  C44      1.0000 0.74920  0.13420  0.00000  Biso   1.000  C  0.120263
  C45      1.0000 0.24920  0.36580  0.50000  Biso   1.000  C  0.120263
  C46      1.0000 0.75080  0.63420  0.50000  Biso   1.000  C  0.120263
  C47      1.0000 0.75080  0.36580  0.00000  Biso   1.000  C  0.120263
  C48      1.0000 0.24920  0.63420  0.00000  Biso   1.000  C  0.120263
  C49      1.0000 0.75000  0.75000  0.51260  Biso   1.000  C  -0.169456
  C50      1.0000 0.25000  0.25000  0.51260  Biso   1.000  C  -0.169456
  C51      1.0000 0.25000  0.75000  0.01260  Biso   1.000  C  -0.169456
  C52      1.0000 0.75000  0.25000  0.01260  Biso   1.000  C  -0.169456
  C53      1.0000 0.74940  0.80910  0.55560  Biso   1.000  C  0.017982
  C54      1.0000 0.25060  0.19090  0.55560  Biso   1.000  C  0.017982
  C55      1.0000 0.25060  0.80910  0.05560  Biso   1.000  C  0.017982
  C56      1.0000 0.74940  0.19090  0.05560  Biso   1.000  C  0.017982
  C57      1.0000 0.24940  0.30910  0.55560  Biso   1.000  C  0.017982
  C58      1.0000 0.75060  0.69090  0.55560  Biso   1.000  C  0.017982
  C59      1.0000 0.75060  0.30910  0.05560  Biso   1.000  C  0.017982
  C60      1.0000 0.24940  0.69090  0.05560  Biso   1.000  C  0.017982
  C61      1.0000 0.74250  0.87260  0.70010  Biso   1.000  C  -0.518485
  C62      1.0000 0.25750  0.12740  0.70010  Biso   1.000  C  -0.518485
  C63      1.0000 0.25750  0.87260  0.20010  Biso   1.000  C  -0.518485
  C64      1.0000 0.74250  0.12740  0.20010  Biso   1.000  C  -0.518485
  C65      1.0000 0.24250  0.37260  0.70010  Biso   1.000  C  -0.518485
  C66      1.0000 0.75750  0.62740  0.70010  Biso   1.000  C  -0.518485
  C67      1.0000 0.75750  0.37260  0.20010  Biso   1.000  C  -0.518485
  C68      1.0000 0.24250  0.62740  0.20010  Biso   1.000  C  -0.518485
  C69      1.0000 0.87960  0.78050  0.98350  Biso   1.000  C  0.115960
  C70      1.0000 0.12040  0.21950  0.98350  Biso   1.000  C  0.115960
  C71      1.0000 0.12040  0.78050  0.48350  Biso   1.000  C  0.115960
  C72      1.0000 0.87960  0.21950  0.48350  Biso   1.000  C  0.115960
  C73      1.0000 0.37960  0.28050  0.98350  Biso   1.000  C  0.115960
  C74      1.0000 0.62040  0.71950  0.98350  Biso   1.000  C  0.115960
  C75      1.0000 0.62040  0.28050  0.48350  Biso   1.000  C  0.115960
  C76      1.0000 0.37960  0.71950  0.48350  Biso   1.000  C  0.115960
  C77      1.0000 0.81560  0.76340  0.83760  Biso   1.000  C  0.150793
  C78      1.0000 0.18440  0.23660  0.83760  Biso   1.000  C  0.150793
  C79      1.0000 0.18440  0.76340  0.33760  Biso   1.000  C  0.150793
  C80      1.0000 0.81560  0.23660  0.33760  Biso   1.000  C  0.150793
  C81      1.0000 0.31560  0.26340  0.83760  Biso   1.000  C  0.150793
  C82      1.0000 0.68440  0.73660  0.83760  Biso   1.000  C  0.150793
  C83      1.0000 0.68440  0.26340  0.33760  Biso   1.000  C  0.150793
  C84      1.0000 0.31560  0.73660  0.33760  Biso   1.000  C  0.150793
  C85      1.0000 0.93720  0.82570  0.97030  Biso   1.000  C  -0.142729
  C86      1.0000 0.06280  0.17430  0.97030  Biso   1.000  C  -0.142729
  C87      1.0000 0.06280  0.82570  0.47030  Biso   1.000  C  -0.142729
  C88      1.0000 0.93720  0.17430  0.47030  Biso   1.000  C  -0.142729
  C89      1.0000 0.43720  0.32570  0.97030  Biso   1.000  C  -0.142729
  C90      1.0000 0.56280  0.67430  0.97030  Biso   1.000  C  -0.142729
  C91      1.0000 0.56280  0.32570  0.47030  Biso   1.000  C  -0.142729
  C92      1.0000 0.43720  0.67430  0.47030  Biso   1.000  C  -0.142729
  C93      1.0000 0.75000  0.75000  0.97310  Biso   1.000  C  -0.173178
  C94      1.0000 0.25000  0.25000  0.97310  Biso   1.000  C  -0.173178
  C95      1.0000 0.25000  0.75000  0.47310  Biso   1.000  C  -0.173178
  C96      1.0000 0.75000  0.25000  0.47310  Biso   1.000  C  -0.173178
  C97      1.0000 0.04540  0.85840  0.06200  Biso   1.000  C  -0.281841
  C98      1.0000 0.95460  0.14160  0.06200  Biso   1.000  C  -0.281841
  C99      1.0000 0.95460  0.85840  0.56200  Biso   1.000  C  -0.281841
  C100     1.0000 0.04540  0.14160  0.56200  Biso   1.000  C  -0.281841
  C101     1.0000 0.54540  0.35840  0.06200  Biso   1.000  C  -0.281841
  C102     1.0000 0.45460  0.64160  0.06200  Biso   1.000  C  -0.281841
  C103     1.0000 0.45460  0.35840  0.56200  Biso   1.000  C  -0.281841
  C104     1.0000 0.54540  0.64160  0.56200  Biso   1.000  C  -0.281841
  C105     1.0000 0.87760  0.01000  0.36530  Biso   1.000  C  0.626221
  C106     1.0000 0.12240  0.99000  0.36530  Biso   1.000  C  0.626219
  C107     1.0000 0.12240  0.01000  0.86530  Biso   1.000  C  0.626219
  C108     1.0000 0.87760  0.99000  0.86530  Biso   1.000  C  0.626219
  C109     1.0000 0.37760  0.51000  0.36530  Biso   1.000  C  0.626219
  C110     1.0000 0.62240  0.49000  0.36530  Biso   1.000  C  0.626220
  C111     1.0000 0.62240  0.51000  0.86530  Biso   1.000  C  0.626219
  C112     1.0000 0.37760  0.49000  0.86530  Biso   1.000  C  0.626219
  C113     1.0000 0.80350  0.01840  0.41080  Biso   1.000  C  -0.270301
  C114     1.0000 0.19650  0.98160  0.41080  Biso   1.000  C  -0.270300
  C115     1.0000 0.19650  0.01840  0.91080  Biso   1.000  C  -0.270300
  C116     1.0000 0.80350  0.98160  0.91080  Biso   1.000  C  -0.270300
  C117     1.0000 0.30350  0.51840  0.41080  Biso   1.000  C  -0.270300
  C118     1.0000 0.69650  0.48160  0.41080  Biso   1.000  C  -0.270300
  C119     1.0000 0.69650  0.51840  0.91080  Biso   1.000  C  -0.270300
  C120     1.0000 0.30350  0.48160  0.91080  Biso   1.000  C  -0.270300
  C121     1.0000 0.78290  0.92580  0.51000  Biso   1.000  C  -0.134719
  C122     1.0000 0.21710  0.07420  0.51000  Biso   1.000  C  -0.134719
  C123     1.0000 0.21710  0.92580  0.01000  Biso   1.000  C  -0.134719
  C124     1.0000 0.78290  0.07420  0.01000  Biso   1.000  C  -0.134719
  C125     1.0000 0.28290  0.42580  0.51000  Biso   1.000  C  -0.134719
  C126     1.0000 0.71710  0.57420  0.51000  Biso   1.000  C  -0.134719
  C127     1.0000 0.71710  0.42580  0.01000  Biso   1.000  C  -0.134719
  C128     1.0000 0.28290  0.57420  0.01000  Biso   1.000  C  -0.134719
  Cd1      1.0000 0.00000  0.00000  0.25812  Biso   1.000  Cd  0.981831
  Cd2      1.0000 0.00000  0.00000  0.75812  Biso   1.000  Cd  0.981831
  Cd3      1.0000 0.50000  0.50000  0.25812  Biso   1.000  Cd  0.981831
  Cd4      1.0000 0.50000  0.50000  0.75812  Biso   1.000  Cd  0.981831
  H1       1.0000 0.87800  0.76570  0.72600  Biso   1.000  H  0.160971
  H2       1.0000 0.12200  0.23430  0.72600  Biso   1.000  H  0.160971
  H3       1.0000 0.12200  0.76570  0.22600  Biso   1.000  H  0.160971
  H4       1.0000 0.87800  0.23430  0.22600  Biso   1.000  H  0.160971
  H5       1.0000 0.37800  0.26570  0.72600  Biso   1.000  H  0.160971
  H6       1.0000 0.62200  0.73430  0.72600  Biso   1.000  H  0.160971
  H7       1.0000 0.62200  0.26570  0.22600  Biso   1.000  H  0.160971
  H8       1.0000 0.37800  0.73430  0.22600  Biso   1.000  H  0.160971
  H9       1.0000 0.92350  0.74370  0.80830  Biso   1.000  H  0.184327
  H10      1.0000 0.07650  0.25630  0.80830  Biso   1.000  H  0.184327
  H11      1.0000 0.07650  0.74370  0.30830  Biso   1.000  H  0.184327
  H12      1.0000 0.92350  0.25630  0.30830  Biso   1.000  H  0.184327
  H13      1.0000 0.42350  0.24370  0.80830  Biso   1.000  H  0.184327
  H14      1.0000 0.57650  0.75630  0.80830  Biso   1.000  H  0.184327
  H15      1.0000 0.57650  0.24370  0.30830  Biso   1.000  H  0.184327
  H16      1.0000 0.42350  0.75630  0.30830  Biso   1.000  H  0.184327
  H17      1.0000 0.90370  0.81670  0.79560  Biso   1.000  H  0.183633
  H18      1.0000 0.09630  0.18330  0.79560  Biso   1.000  H  0.183633
  H19      1.0000 0.09630  0.81670  0.29560  Biso   1.000  H  0.183633
  H20      1.0000 0.90370  0.18330  0.29560  Biso   1.000  H  0.183633
  H21      1.0000 0.40370  0.31670  0.79560  Biso   1.000  H  0.183633
  H22      1.0000 0.59630  0.68330  0.79560  Biso   1.000  H  0.183633
  H23      1.0000 0.59630  0.31670  0.29560  Biso   1.000  H  0.183633
  H24      1.0000 0.40370  0.68330  0.29560  Biso   1.000  H  0.183633
  H25      1.0000 0.75000  0.75000  0.45160  Biso   1.000  H  0.138459
  H26      1.0000 0.25000  0.25000  0.45160  Biso   1.000  H  0.138459
  H27      1.0000 0.25000  0.75000  0.95160  Biso   1.000  H  0.138459
  H28      1.0000 0.75000  0.25000  0.95160  Biso   1.000  H  0.138459
  H29      1.0000 0.71440  0.90330  0.66670  Biso   1.000  H  0.174813
  H30      1.0000 0.28560  0.09670  0.66670  Biso   1.000  H  0.174812
  H31      1.0000 0.28560  0.90330  0.16670  Biso   1.000  H  0.174813
  H32      1.0000 0.71440  0.09670  0.16670  Biso   1.000  H  0.174812
  H33      1.0000 0.21440  0.40330  0.66670  Biso   1.000  H  0.174813
  H34      1.0000 0.78560  0.59670  0.66670  Biso   1.000  H  0.174812
  H35      1.0000 0.78560  0.40330  0.16670  Biso   1.000  H  0.174813
  H36      1.0000 0.21440  0.59670  0.16670  Biso   1.000  H  0.174812
  H37      1.0000 0.79140  0.88920  0.71020  Biso   1.000  H  0.179961
  H38      1.0000 0.20860  0.11080  0.71020  Biso   1.000  H  0.179961
  H39      1.0000 0.20860  0.88920  0.21020  Biso   1.000  H  0.179961
  H40      1.0000 0.79140  0.11080  0.21020  Biso   1.000  H  0.179961
  H41      1.0000 0.29140  0.38920  0.71020  Biso   1.000  H  0.179961
  H42      1.0000 0.70860  0.61080  0.71020  Biso   1.000  H  0.179961
  H43      1.0000 0.70860  0.38920  0.21020  Biso   1.000  H  0.179961
  H44      1.0000 0.29140  0.61080  0.21020  Biso   1.000  H  0.179961
  H45      1.0000 0.71850  0.86510  0.75540  Biso   1.000  H  0.169266
  H46      1.0000 0.28150  0.13490  0.75540  Biso   1.000  H  0.169266
  H47      1.0000 0.28150  0.86510  0.25540  Biso   1.000  H  0.169266
  H48      1.0000 0.71850  0.13490  0.25540  Biso   1.000  H  0.169266
  H49      1.0000 0.21850  0.36510  0.75540  Biso   1.000  H  0.169266
  H50      1.0000 0.78150  0.63490  0.75540  Biso   1.000  H  0.169266
  H51      1.0000 0.78150  0.36510  0.25540  Biso   1.000  H  0.169266
  H52      1.0000 0.21850  0.63490  0.25540  Biso   1.000  H  0.169266
  H53      1.0000 0.94400  0.85350  0.92310  Biso   1.000  H  0.157589
  H54      1.0000 0.05600  0.14650  0.92310  Biso   1.000  H  0.157589
  H55      1.0000 0.05600  0.85350  0.42310  Biso   1.000  H  0.157589
  H56      1.0000 0.94400  0.14650  0.42310  Biso   1.000  H  0.157589
  H57      1.0000 0.44400  0.35350  0.92310  Biso   1.000  H  0.157589
  H58      1.0000 0.55600  0.64650  0.92310  Biso   1.000  H  0.157589
  H59      1.0000 0.55600  0.35350  0.42310  Biso   1.000  H  0.157589
  H60      1.0000 0.44400  0.64650  0.42310  Biso   1.000  H  0.157588
  H61      1.0000 0.75000  0.75000  0.03410  Biso   1.000  H  0.142651
  H62      1.0000 0.25000  0.25000  0.03410  Biso   1.000  H  0.142651
  H63      1.0000 0.25000  0.75000  0.53410  Biso   1.000  H  0.142651
  H64      1.0000 0.75000  0.25000  0.53410  Biso   1.000  H  0.142651
  H65      1.0000 0.06100  0.88010  0.00880  Biso   1.000  H  0.155455
  H66      1.0000 0.93900  0.11990  0.00880  Biso   1.000  H  0.155455
  H67      1.0000 0.93900  0.88010  0.50880  Biso   1.000  H  0.155455
  H68      1.0000 0.06100  0.11990  0.50880  Biso   1.000  H  0.155455
  H69      1.0000 0.56100  0.38010  0.00880  Biso   1.000  H  0.155455
  H70      1.0000 0.43900  0.61990  0.00880  Biso   1.000  H  0.155455
  H71      1.0000 0.43900  0.38010  0.50880  Biso   1.000  H  0.155455
  H72      1.0000 0.56100  0.61990  0.50880  Biso   1.000  H  0.155455
  H73      1.0000 0.08540  0.83040  0.08050  Biso   1.000  H  0.144301
  H74      1.0000 0.91460  0.16960  0.08050  Biso   1.000  H  0.144301
  H75      1.0000 0.91460  0.83040  0.58050  Biso   1.000  H  0.144301
  H76      1.0000 0.08540  0.16960  0.58050  Biso   1.000  H  0.144301
  H77      1.0000 0.58540  0.33040  0.08050  Biso   1.000  H  0.144301
  H78      1.0000 0.41460  0.66960  0.08050  Biso   1.000  H  0.144301
  H79      1.0000 0.41460  0.33040  0.58050  Biso   1.000  H  0.144301
  H80      1.0000 0.58540  0.66960  0.58050  Biso   1.000  H  0.144301
  H81      1.0000 0.81030  0.04620  0.46140  Biso   1.000  H  0.151394
  H82      1.0000 0.18970  0.95380  0.46140  Biso   1.000  H  0.151393
  H83      1.0000 0.18970  0.04620  0.96140  Biso   1.000  H  0.151393
  H84      1.0000 0.81030  0.95380  0.96140  Biso   1.000  H  0.151393
  H85      1.0000 0.31030  0.54620  0.46140  Biso   1.000  H  0.151394
  H86      1.0000 0.68970  0.45380  0.46140  Biso   1.000  H  0.151393
  H87      1.0000 0.68970  0.54620  0.96140  Biso   1.000  H  0.151393
  H88      1.0000 0.31030  0.45380  0.96140  Biso   1.000  H  0.151393
  H89      1.0000 0.76990  0.04010  0.37090  Biso   1.000  H  0.155325
  H90      1.0000 0.23010  0.95990  0.37090  Biso   1.000  H  0.155325
  H91      1.0000 0.23010  0.04010  0.87090  Biso   1.000  H  0.155325
  H92      1.0000 0.76990  0.95990  0.87090  Biso   1.000  H  0.155325
  H93      1.0000 0.26990  0.54010  0.37090  Biso   1.000  H  0.155325
  H94      1.0000 0.73010  0.45990  0.37090  Biso   1.000  H  0.155325
  H95      1.0000 0.73010  0.54010  0.87090  Biso   1.000  H  0.155325
  H96      1.0000 0.26990  0.45990  0.87090  Biso   1.000  H  0.155325
  H97      1.0000 0.81010  0.93960  0.55830  Biso   1.000  H  0.141306
  H98      1.0000 0.18990  0.06040  0.55830  Biso   1.000  H  0.141306
  H99      1.0000 0.18990  0.93960  0.05830  Biso   1.000  H  0.141306
  H100     1.0000 0.81010  0.06040  0.05830  Biso   1.000  H  0.141306
  H101     1.0000 0.31010  0.43960  0.55830  Biso   1.000  H  0.141306
  H102     1.0000 0.68990  0.56040  0.55830  Biso   1.000  H  0.141306
  H103     1.0000 0.68990  0.43960  0.05830  Biso   1.000  H  0.141306
  H104     1.0000 0.31010  0.56040  0.05830  Biso   1.000  H  0.141306
  N1       1.0000 0.76950  0.95870  0.43980  Biso   1.000  N  0.206735
  N2       1.0000 0.23050  0.04130  0.43980  Biso   1.000  N  0.206735
  N3       1.0000 0.23050  0.95870  0.93980  Biso   1.000  N  0.206735
  N4       1.0000 0.76950  0.04130  0.93980  Biso   1.000  N  0.206735
  N5       1.0000 0.26950  0.45870  0.43980  Biso   1.000  N  0.206735
  N6       1.0000 0.73050  0.54130  0.43980  Biso   1.000  N  0.206735
  N7       1.0000 0.73050  0.45870  0.93980  Biso   1.000  N  0.206735
  N8       1.0000 0.26950  0.54130  0.93980  Biso   1.000  N  0.206734
  N9       1.0000 0.98000  0.81890  0.04240  Biso   1.000  N  0.217845
  N10      1.0000 0.02000  0.18110  0.04240  Biso   1.000  N  0.217845
  N11      1.0000 0.02000  0.81890  0.54240  Biso   1.000  N  0.217845
  N12      1.0000 0.98000  0.18110  0.54240  Biso   1.000  N  0.217845
  N13      1.0000 0.48000  0.31890  0.04240  Biso   1.000  N  0.217845
  N14      1.0000 0.52000  0.68110  0.04240  Biso   1.000  N  0.217845
  N15      1.0000 0.52000  0.31890  0.54240  Biso   1.000  N  0.217845
  N16      1.0000 0.48000  0.68110  0.54240  Biso   1.000  N  0.217845
  N17      1.0000 0.71710  0.86570  0.42010  Biso   1.000  N  -0.210933
  N18      1.0000 0.28290  0.13430  0.42010  Biso   1.000  N  -0.210933
  N19      1.0000 0.28290  0.86570  0.92010  Biso   1.000  N  -0.210933
  N20      1.0000 0.71710  0.13430  0.92010  Biso   1.000  N  -0.210933
  N21      1.0000 0.21710  0.36570  0.42010  Biso   1.000  N  -0.210933
  N22      1.0000 0.78290  0.63430  0.42010  Biso   1.000  N  -0.210933
  N23      1.0000 0.78290  0.36570  0.92010  Biso   1.000  N  -0.210933
  N24      1.0000 0.21710  0.63430  0.92010  Biso   1.000  N  -0.210933
  N25      1.0000 0.89400  0.75100  0.06270  Biso   1.000  N  -0.212890
  N26      1.0000 0.10600  0.24900  0.06270  Biso   1.000  N  -0.212890
  N27      1.0000 0.10600  0.75100  0.56270  Biso   1.000  N  -0.212890
  N28      1.0000 0.89400  0.24900  0.56270  Biso   1.000  N  -0.212890
  N29      1.0000 0.39400  0.25100  0.06270  Biso   1.000  N  -0.212890
  N30      1.0000 0.60600  0.74900  0.06270  Biso   1.000  N  -0.212890
  N31      1.0000 0.60600  0.25100  0.56270  Biso   1.000  N  -0.212890
  N32      1.0000 0.39400  0.74900  0.56270  Biso   1.000  N  -0.212890
  N33      1.0000 0.72980  0.92350  0.38250  Biso   1.000  N  -0.112193
  N34      1.0000 0.27020  0.07650  0.38250  Biso   1.000  N  -0.112193
  N35      1.0000 0.27020  0.92350  0.88250  Biso   1.000  N  -0.112193
  N36      1.0000 0.72980  0.07650  0.88250  Biso   1.000  N  -0.112193
  N37      1.0000 0.22980  0.42350  0.38250  Biso   1.000  N  -0.112193
  N38      1.0000 0.77020  0.57650  0.38250  Biso   1.000  N  -0.112193
  N39      1.0000 0.77020  0.42350  0.88250  Biso   1.000  N  -0.112193
  N40      1.0000 0.22980  0.57650  0.88250  Biso   1.000  N  -0.112193
  N41      1.0000 0.95280  0.77460  0.09890  Biso   1.000  N  -0.079534
  N42      1.0000 0.04720  0.22540  0.09890  Biso   1.000  N  -0.079534
  N43      1.0000 0.04720  0.77460  0.59890  Biso   1.000  N  -0.079534
  N44      1.0000 0.95280  0.22540  0.59890  Biso   1.000  N  -0.079534
  N45      1.0000 0.45280  0.27460  0.09890  Biso   1.000  N  -0.079534
  N46      1.0000 0.54720  0.72540  0.09890  Biso   1.000  N  -0.079534
  N47      1.0000 0.54720  0.27460  0.59890  Biso   1.000  N  -0.079534
  N48      1.0000 0.45280  0.72540  0.59890  Biso   1.000  N  -0.079534
  O1       1.0000 0.07960  0.94960  0.14160  Biso   1.000  O  -0.513789
  O2       1.0000 0.92040  0.05040  0.14160  Biso   1.000  O  -0.513789
  O3       1.0000 0.92040  0.94960  0.64160  Biso   1.000  O  -0.513789
  O4       1.0000 0.07960  0.05040  0.64160  Biso   1.000  O  -0.513790
  O5       1.0000 0.57960  0.44960  0.14160  Biso   1.000  O  -0.513789
  O6       1.0000 0.42040  0.55040  0.14160  Biso   1.000  O  -0.513789
  O7       1.0000 0.42040  0.44960  0.64160  Biso   1.000  O  -0.513790
  O8       1.0000 0.57960  0.55040  0.64160  Biso   1.000  O  -0.513789
  O9       1.0000 0.89760  0.95370  0.34810  Biso   1.000  O  -0.527498
  O10      1.0000 0.10240  0.04630  0.34810  Biso   1.000  O  -0.527496
  O11      1.0000 0.10240  0.95370  0.84810  Biso   1.000  O  -0.527496
  O12      1.0000 0.89760  0.04630  0.84810  Biso   1.000  O  -0.527496
  O13      1.0000 0.39760  0.45370  0.34810  Biso   1.000  O  -0.527496
  O14      1.0000 0.60240  0.54630  0.34810  Biso   1.000  O  -0.527496
  O15      1.0000 0.60240  0.45370  0.84810  Biso   1.000  O  -0.527496
  O16      1.0000 0.39760  0.54630  0.84810  Biso   1.000  O  -0.527495
  O17      1.0000 0.91160  0.05760  0.34450  Biso   1.000  O  -0.545004
  O18      1.0000 0.08840  0.94240  0.34450  Biso   1.000  O  -0.545002
  O19      1.0000 0.08840  0.05760  0.84450  Biso   1.000  O  -0.545003
  O20      1.0000 0.91160  0.94240  0.84450  Biso   1.000  O  -0.545002
  O21      1.0000 0.41160  0.55760  0.34450  Biso   1.000  O  -0.545003
  O22      1.0000 0.58840  0.44240  0.34450  Biso   1.000  O  -0.545003
  O23      1.0000 0.58840  0.55760  0.84450  Biso   1.000  O  -0.545003
  O24      1.0000 0.41160  0.44240  0.84450  Biso   1.000  O  -0.545002
  O25      1.0000 0.97210  0.90860  0.17380  Biso   1.000  O  -0.497375
  O26      1.0000 0.02790  0.09140  0.17380  Biso   1.000  O  -0.497376
  O27      1.0000 0.02790  0.90860  0.67380  Biso   1.000  O  -0.497375
  O28      1.0000 0.97210  0.09140  0.67380  Biso   1.000  O  -0.497376
  O29      1.0000 0.47210  0.40860  0.17380  Biso   1.000  O  -0.497375
  O30      1.0000 0.52790  0.59140  0.17380  Biso   1.000  O  -0.497374
  O31      1.0000 0.52790  0.40860  0.67380  Biso   1.000  O  -0.497376
  O32      1.0000 0.47210  0.59140  0.67380  Biso   1.000  O  -0.497376
