
##########################################################################
#               Crystallographic Information Format file
#               Produced by PyCifRW module
#
#  This is a CIF file.  CIF has been adopted by the International
#  Union of Crystallography as the standard for data archiving and
#  transmission.
#
#  For information on this file format, follow the CIF links at
#  http://www.iucr.org
##########################################################################

data_image0

_cell_length_a                          18.794
_cell_length_b                          18.794
_cell_length_c                          19.9351
_cell_angle_alpha                       61.8761
_cell_angle_beta                        61.8761
_cell_angle_gamma                       60
_symmetry_space_group_name_H-M          'P 1'
_symmetry_int_tables_number             1
loop_
  _symmetry_equiv_pos_as_xyz
         'x, y, z' 
loop_
  _atom_site_label
  _atom_site_occupancy
  _atom_site_fract_x
  _atom_site_fract_y
  _atom_site_fract_z
  _atom_site_thermal_displace_type
  _atom_site_B_iso_or_equiv
  _atom_site_type_symbol
  _atom_site_charge
         C1        1.0000    0.05280   0.99680   0.43080   Biso      1.000     C          -0.054282000000000004         
         C2        1.0000    0.24593   0.53213   0.10101   Biso      1.000     C          0.013068999999999999          
         C3        1.0000    0.51960   0.99680   0.43080   Biso      1.000     C          -0.057358000000000006         
         C4        1.0000    0.53640   0.00610   0.34170   Biso      1.000     C          0.44130699999999995           
         C5        1.0000    0.52602   0.07392   0.06024   Biso      1.000     C          0.577868  
         C6        1.0000    0.53244   0.07684   0.18018   Biso      1.000     C          -0.182804           
         C7        1.0000    0.53213   0.12093   0.10101   Biso      1.000     C          0.014372999999999999          
         C8        1.0000    0.99680   0.05280   0.43080   Biso      1.000     C          -0.054002999999999995         
         C9        1.0000    0.00610   0.11580   0.34170   Biso      1.000     C          0.439878  
         C10       1.0000    0.07392   0.33982   0.06024   Biso      1.000     C          0.578329  
         C11       1.0000    0.07684   0.21054   0.18018   Biso      1.000     C          -0.19003  
         C12       1.0000    0.12093   0.24593   0.10101   Biso      1.000     C          0.011498  
         C13       1.0000    0.94720   0.00320   0.56920   Biso      1.000     C          -0.054279999999999995         
         C14       1.0000    0.88420   0.99390   0.65830   Biso      1.000     C          0.439842  
         C15       1.0000    0.66018   0.92608   0.93976   Biso      1.000     C          0.5772930000000001  
         C16       1.0000    0.78946   0.92316   0.81982   Biso      1.000     C          -0.190466           
         C17       1.0000    0.21054   0.53244   0.18018   Biso      1.000     C          -0.181509           
         C18       1.0000    0.33982   0.52602   0.06024   Biso      1.000     C          0.578955  
         C19       1.0000    0.11580   0.53640   0.34170   Biso      1.000     C          0.443003  
         C20       1.0000    0.05280   0.51960   0.43080   Biso      1.000     C          -0.054707000000000006         
         C21       1.0000    0.87907   0.75407   0.89899   Biso      1.000     C          0.011461  
         C22       1.0000    0.99390   0.88420   0.65830   Biso      1.000     C          0.439882  
         C23       1.0000    0.11580   0.00610   0.34170   Biso      1.000     C          0.439837  
         C24       1.0000    0.33982   0.07392   0.06024   Biso      1.000     C          0.577256  
         C25       1.0000    0.21054   0.07684   0.18018   Biso      1.000     C          -0.190444           
         C26       1.0000    0.24593   0.12093   0.10101   Biso      1.000     C          0.014512  
         C27       1.0000    0.51960   0.05280   0.43080   Biso      1.000     C          -0.054464           
         C28       1.0000    0.75407   0.87907   0.89899   Biso      1.000     C          0.014513  
         C29       1.0000    0.53640   0.11580   0.34170   Biso      1.000     C          0.44296599999999997           
         C30       1.0000    0.53244   0.21054   0.18018   Biso      1.000     C          -0.181516           
         C31       1.0000    0.53213   0.24593   0.10101   Biso      1.000     C          0.013177000000000001          
         C32       1.0000    0.99680   0.51960   0.43080   Biso      1.000     C          -0.057132           
         C33       1.0000    0.00610   0.53640   0.34170   Biso      1.000     C          0.44116000000000005           
         C34       1.0000    0.07392   0.52602   0.06024   Biso      1.000     C          0.578767  
         C35       1.0000    0.07684   0.53244   0.18018   Biso      1.000     C          -0.191072           
         C36       1.0000    0.12093   0.53213   0.10101   Biso      1.000     C          0.01082   
         C37       1.0000    0.52602   0.33982   0.06024   Biso      1.000     C          0.579025  
         C38       1.0000    0.48040   0.94720   0.56920   Biso      1.000     C          -0.054699           
         C39       1.0000    0.46360   0.88420   0.65830   Biso      1.000     C          0.442984  
         C40       1.0000    0.47398   0.66018   0.93976   Biso      1.000     C          0.579024  
         C41       1.0000    0.46726   0.79556   0.94162   Biso      1.000     C          -0.11754400000000001          
         C42       1.0000    0.46720   0.87500   0.78280   Biso      1.000     C          0.17637   
         C43       1.0000    0.79556   0.79556   0.94162   Biso      1.000     C          -0.11857899999999999          
         C44       1.0000    0.87500   0.87500   0.78280   Biso      1.000     C          0.174592  
         C45       1.0000    0.20444   0.20444   0.05838   Biso      1.000     C          -0.118566           
         C46       1.0000    0.12500   0.12500   0.21720   Biso      1.000     C          0.17460699999999998           
         C47       1.0000    0.53274   0.20444   0.05838   Biso      1.000     C          -0.117573           
         C48       1.0000    0.87500   0.46720   0.78280   Biso      1.000     C          0.175879  
         C49       1.0000    0.53280   0.12500   0.21720   Biso      1.000     C          0.176367  
         C50       1.0000    0.12500   0.53280   0.21720   Biso      1.000     C          0.175894  
         C51       1.0000    0.07680   0.50000   0.50000   Biso      1.000     C          -0.098335           
         C52       1.0000    0.50000   0.92320   0.50000   Biso      1.000     C          -0.098333           
         C53       1.0000    0.92320   0.07680   0.50000   Biso      1.000     C          -0.089185           
         C54       1.0000    0.92320   0.50000   0.50000   Biso      1.000     C          -0.098384           
         C55       1.0000    0.50000   0.07680   0.50000   Biso      1.000     C          -0.098385           
         C56       1.0000    0.07680   0.92320   0.50000   Biso      1.000     C          -0.089184           
         C57       1.0000    0.20444   0.53274   0.05838   Biso      1.000     C          -0.11712  
         C58       1.0000    0.92316   0.78946   0.81982   Biso      1.000     C          -0.19003299999999998          
         C59       1.0000    0.79556   0.46726   0.94162   Biso      1.000     C          -0.11713499999999999          
         C60       1.0000    0.88420   0.46360   0.65830   Biso      1.000     C          0.442992  
         C61       1.0000    0.46756   0.78946   0.81982   Biso      1.000     C          -0.181526           
         C62       1.0000    0.46787   0.75407   0.89899   Biso      1.000     C          0.01318   
         C63       1.0000    0.00320   0.48040   0.56920   Biso      1.000     C          -0.057363           
         C64       1.0000    0.99390   0.46360   0.65830   Biso      1.000     C          0.441179  
         C65       1.0000    0.92608   0.47398   0.93976   Biso      1.000     C          0.578775  
         C66       1.0000    0.92316   0.46756   0.81982   Biso      1.000     C          -0.191075           
         C67       1.0000    0.87907   0.46787   0.89899   Biso      1.000     C          0.010782  
         C68       1.0000    0.94720   0.48040   0.56920   Biso      1.000     C          -0.054473           
         C69       1.0000    0.00320   0.94720   0.56920   Biso      1.000     C          -0.054001           
         C70       1.0000    0.46756   0.92316   0.81982   Biso      1.000     C          -0.182814           
         C71       1.0000    0.47398   0.92608   0.93976   Biso      1.000     C          0.577868  
         C72       1.0000    0.46360   0.99390   0.65830   Biso      1.000     C          0.44129300000000005           
         C73       1.0000    0.48040   0.00320   0.56920   Biso      1.000     C          -0.057125           
         C74       1.0000    0.75407   0.46787   0.89899   Biso      1.000     C          0.013069999999999998          
         C75       1.0000    0.78946   0.46756   0.81982   Biso      1.000     C          -0.18153  
         C76       1.0000    0.66018   0.47398   0.93976   Biso      1.000     C          0.5789920000000001  
         C77       1.0000    0.46787   0.87907   0.89899   Biso      1.000     C          0.014375  
         C78       1.0000    0.92608   0.66018   0.93976   Biso      1.000     C          0.578337  
         Cu1       1.0000    0.06767   0.49914   0.93405   Biso      1.000     Cu          0.88264   
         Cu2       1.0000    0.50086   0.93233   0.06595   Biso      1.000     Cu          0.875052  
         Cu3       1.0000    0.49914   0.49914   0.93405   Biso      1.000     Cu          0.876401  
         Cu4       1.0000    0.49914   0.06767   0.93405   Biso      1.000     Cu          0.87556   
         Cu5       1.0000    0.93233   0.50086   0.06595   Biso      1.000     Cu          0.882343  
         Cu6       1.0000    0.50086   0.50086   0.06595   Biso      1.000     Cu          0.875898  
         H1        1.0000    0.97920   0.46780   0.79360   Biso      1.000     H          0.173521  
         H2        1.0000    0.46780   0.75940   0.79360   Biso      1.000     H          0.161124  
         H3        1.0000    0.75940   0.97920   0.79360   Biso      1.000     H          0.173085  
         H4        1.0000    0.02080   0.24060   0.20640   Biso      1.000     H          0.172862  
         H5        1.0000    0.53220   0.02080   0.20640   Biso      1.000     H          0.16148099999999999           
         H6        1.0000    0.24060   0.53220   0.20640   Biso      1.000     H          0.161117  
         H7        1.0000    0.02080   0.53220   0.20640   Biso      1.000     H          0.173529  
         H8        1.0000    0.53220   0.24060   0.20640   Biso      1.000     H          0.161126  
         H9        1.0000    0.24060   0.02080   0.20640   Biso      1.000     H          0.173096  
         H10       1.0000    0.12630   0.87370   0.50000   Biso      1.000     H          0.145152  
         H11       1.0000    0.46780   0.97920   0.79360   Biso      1.000     H          0.16147899999999998           
         H12       1.0000    0.75940   0.46780   0.79360   Biso      1.000     H          0.161109  
         H13       1.0000    0.76940   0.46630   0.99490   Biso      1.000     H          0.154584  
         H14       1.0000    0.46630   0.76940   0.99490   Biso      1.000     H          0.154855  
         H15       1.0000    0.76940   0.76940   0.99490   Biso      1.000     H          0.1544    
         H16       1.0000    0.23060   0.23060   0.00510   Biso      1.000     H          0.154408  
         H17       1.0000    0.53370   0.23060   0.00510   Biso      1.000     H          0.154851  
         H18       1.0000    0.23060   0.53370   0.00510   Biso      1.000     H          0.154594  
         H19       1.0000    0.12630   0.50000   0.50000   Biso      1.000     H          0.155855  
         H20       1.0000    0.50000   0.87370   0.50000   Biso      1.000     H          0.155856  
         H21       1.0000    0.87370   0.12630   0.50000   Biso      1.000     H          0.145152  
         H22       1.0000    0.87370   0.50000   0.50000   Biso      1.000     H          0.155857  
         H23       1.0000    0.50000   0.12630   0.50000   Biso      1.000     H          0.15586   
         H24       1.0000    0.97920   0.75940   0.79360   Biso      1.000     H          0.172854  
         N1        1.0000    0.08460   0.52270   0.30810   Biso      1.000     N          -0.128523           
         N2        1.0000    0.08460   0.08460   0.30810   Biso      1.000     N          -0.126419           
         N3        1.0000    0.52270   0.08460   0.30810   Biso      1.000     N          -0.128408           
         N4        1.0000    0.47730   0.91540   0.69190   Biso      1.000     N          -0.128407           
         N5        1.0000    0.91540   0.47730   0.69190   Biso      1.000     N          -0.12853499999999998          
         N6        1.0000    0.91540   0.91540   0.69190   Biso      1.000     N          -0.126431           
         O1        1.0000    0.11467   0.52087   0.98929   Biso      1.000     O          -0.523211           
         O2        1.0000    0.95000   0.53000   0.33000   Biso      1.000     O          -0.43156700000000003          
         O3        1.0000    0.52235   0.37635   0.10215   Biso      1.000     O          -0.513818           
         O4        1.0000    0.52087   0.37517   0.98929   Biso      1.000     O          -0.5235810000000001           
         O5        1.0000    0.53000   0.19000   0.33000   Biso      1.000     O          -0.431284           
         O6        1.0000    0.37635   0.99915   0.10215   Biso      1.000     O          -0.5133770000000001           
         O7        1.0000    0.37517   0.11467   0.98929   Biso      1.000     O          -0.522945           
         O8        1.0000    0.00085   0.62365   0.89785   Biso      1.000     O          -0.513691           
         O9        1.0000    0.88533   0.62483   0.01071   Biso      1.000     O          -0.522885           
         O10       1.0000    0.05000   0.81000   0.67000   Biso      1.000     O          -0.43212  
         O11       1.0000    0.47765   0.00085   0.89785   Biso      1.000     O          -0.513202           
         O12       1.0000    0.47913   0.88533   0.01071   Biso      1.000     O          -0.5232020000000001           
         O13       1.0000    0.47000   0.05000   0.67000   Biso      1.000     O          -0.42940500000000004          
         O14       1.0000    0.62365   0.47765   0.89785   Biso      1.000     O          -0.513777           
         O15       1.0000    0.99915   0.52235   0.10215   Biso      1.000     O          -0.51376  
         O16       1.0000    0.19000   0.95000   0.33000   Biso      1.000     O          -0.431841           
         O17       1.0000    0.19000   0.53000   0.33000   Biso      1.000     O          -0.431253           
         O18       1.0000    0.00085   0.47765   0.89785   Biso      1.000     O          -0.513891           
         O19       1.0000    0.37635   0.52235   0.10215   Biso      1.000     O          -0.5136270000000001           
         O20       1.0000    0.62483   0.47913   0.01071   Biso      1.000     O          -0.5237229999999999           
         O21       1.0000    0.88533   0.47913   0.01071   Biso      1.000     O          -0.5232439999999999           
         O22       1.0000    0.05000   0.47000   0.67000   Biso      1.000     O          -0.431571           
         O23       1.0000    0.47765   0.62365   0.89785   Biso      1.000     O          -0.513826           
         O24       1.0000    0.47913   0.62483   0.01071   Biso      1.000     O          -0.5235569999999999           
         O25       1.0000    0.47000   0.81000   0.67000   Biso      1.000     O          -0.43128999999999995          
         O26       1.0000    0.62365   0.00085   0.89785   Biso      1.000     O          -0.513522           
         O27       1.0000    0.62483   0.88533   0.01071   Biso      1.000     O          -0.523012           
         O28       1.0000    0.81000   0.05000   0.67000   Biso      1.000     O          -0.43185100000000004          
         O29       1.0000    0.99915   0.37635   0.10215   Biso      1.000     O          -0.51356  
         O30       1.0000    0.11467   0.37517   0.98929   Biso      1.000     O          -0.5228510000000001           
         O31       1.0000    0.95000   0.19000   0.33000   Biso      1.000     O          -0.43211400000000005          
         O32       1.0000    0.52235   0.99915   0.10215   Biso      1.000     O          -0.513199           
         O33       1.0000    0.52087   0.11467   0.98929   Biso      1.000     O          -0.523221           
         O34       1.0000    0.53000   0.95000   0.33000   Biso      1.000     O          -0.42939700000000003          
         O35       1.0000    0.37517   0.52087   0.98929   Biso      1.000     O          -0.5236609999999999           
         O36       1.0000    0.81000   0.47000   0.67000   Biso      1.000     O          -0.43126400000000004 