data_image0
_cell_length_a       9.287
_cell_length_b       16.667
_cell_length_c       28.242
_cell_angle_alpha    90
_cell_angle_beta     90
_cell_angle_gamma    97.03

_symmetry_space_group_name_H-M    "P 1"
_symmetry_int_tables_number       1

loop_
  _symmetry_equiv_pos_as_xyz
  'x, y, z'

loop_
  _atom_site_label
  _atom_site_occupancy
  _atom_site_fract_x
  _atom_site_fract_y
  _atom_site_fract_z
  _atom_site_thermal_displace_type
  _atom_site_B_iso_or_equiv
  _atom_site_type_symbol
  _atom_site_charge
  C1       1.0000 0.06630  0.24610  0.51672  Biso   1.000  C  0.090814
  C2       1.0000 0.00030  0.20900  0.55644  Biso   1.000  C  -0.195465
  C3       1.0000 0.02530  0.13100  0.56737  Biso   1.000  C  0.125936
  C4       1.0000 0.11420  0.09450  0.53686  Biso   1.000  C  -0.193827
  C5       1.0000 0.17440  0.13610  0.49769  Biso   1.000  C  0.082808
  C6       1.0000 0.95930  0.08850  0.60977  Biso   1.000  C  0.055178
  C7       1.0000 0.93240  0.13120  0.65053  Biso   1.000  C  -0.148660
  C8       1.0000 0.87740  0.09120  0.69130  Biso   1.000  C  -0.001231
  C9       1.0000 0.84470  0.00820  0.69077  Biso   1.000  C  -0.104167
  C10      1.0000 0.86430  0.96350  0.64963  Biso   1.000  C  -0.010802
  C11      1.0000 0.92170  0.00490  0.60960  Biso   1.000  C  -0.161869
  C12      1.0000 0.84890  0.13800  0.73472  Biso   1.000  C  0.558558
  C13      1.0000 0.82510  0.87410  0.64856  Biso   1.000  C  0.609210
  C14      1.0000 0.36990  0.37130  0.50883  Biso   1.000  C  0.069688
  C15      1.0000 0.37720  0.43070  0.54310  Biso   1.000  C  -0.183731
  C16      1.0000 0.30660  0.49840  0.53590  Biso   1.000  C  0.123323
  C17      1.0000 0.23710  0.50450  0.49245  Biso   1.000  C  -0.202620
  C18      1.0000 0.23660  0.44300  0.45996  Biso   1.000  C  0.097936
  C19      1.0000 0.30240  0.56100  0.57299  Biso   1.000  C  0.059031
  C20      1.0000 0.42400  0.58560  0.60094  Biso   1.000  C  -0.173227
  C21      1.0000 0.41830  0.64300  0.63622  Biso   1.000  C  -0.002126
  C22      1.0000 0.29010  0.67450  0.64551  Biso   1.000  C  -0.106462
  C23      1.0000 0.17000  0.65260  0.61690  Biso   1.000  C  0.000343
  C24      1.0000 0.17720  0.59740  0.58048  Biso   1.000  C  -0.170937
  C25      1.0000 0.55500  0.67370  0.66235  Biso   1.000  C  0.577038
  C26      1.0000 0.02850  0.68730  0.62501  Biso   1.000  C  0.600628
  C27      1.0000 0.93370  0.25390  0.01672  Biso   1.000  C  0.091091
  C28      1.0000 0.99970  0.29100  0.05644  Biso   1.000  C  -0.195593
  C29      1.0000 0.97470  0.36900  0.06737  Biso   1.000  C  0.129567
  C30      1.0000 0.88580  0.40550  0.03686  Biso   1.000  C  -0.194379
  C31      1.0000 0.82560  0.36390  0.99769  Biso   1.000  C  0.084327
  C32      1.0000 0.04070  0.41150  0.10977  Biso   1.000  C  0.052765
  C33      1.0000 0.06760  0.36880  0.15053  Biso   1.000  C  -0.149296
  C34      1.0000 0.12260  0.40880  0.19130  Biso   1.000  C  0.006649
  C35      1.0000 0.15530  0.49180  0.19077  Biso   1.000  C  -0.103413
  C36      1.0000 0.13570  0.53650  0.14963  Biso   1.000  C  -0.012570
  C37      1.0000 0.07830  0.49510  0.10960  Biso   1.000  C  -0.164423
  C38      1.0000 0.15110  0.36200  0.23472  Biso   1.000  C  0.565107
  C39      1.0000 0.17490  0.62590  0.14856  Biso   1.000  C  0.603924
  C40      1.0000 0.63010  0.12870  0.00883  Biso   1.000  C  0.071562
  C41      1.0000 0.62280  0.06930  0.04310  Biso   1.000  C  -0.183340
  C42      1.0000 0.69340  0.00160  0.03590  Biso   1.000  C  0.125082
  C43      1.0000 0.76290  0.99550  0.99245  Biso   1.000  C  -0.203256
  C44      1.0000 0.76340  0.05700  0.95996  Biso   1.000  C  0.099922
  C45      1.0000 0.69760  0.93900  0.07299  Biso   1.000  C  0.059801
  C46      1.0000 0.57600  0.91440  0.10094  Biso   1.000  C  -0.174552
  C47      1.0000 0.58170  0.85700  0.13622  Biso   1.000  C  -0.003165
  C48      1.0000 0.70990  0.82550  0.14551  Biso   1.000  C  -0.106010
  C49      1.0000 0.83000  0.84740  0.11690  Biso   1.000  C  0.002689
  C50      1.0000 0.82280  0.90260  0.08048  Biso   1.000  C  -0.172059
  C51      1.0000 0.44500  0.82630  0.16235  Biso   1.000  C  0.569142
  C52      1.0000 0.97150  0.81270  0.12501  Biso   1.000  C  0.592982
  C53      1.0000 0.93370  0.75390  0.48328  Biso   1.000  C  0.090775
  C54      1.0000 0.99970  0.79100  0.44356  Biso   1.000  C  -0.195415
  C55      1.0000 0.97470  0.86900  0.43263  Biso   1.000  C  0.126660
  C56      1.0000 0.88580  0.90550  0.46314  Biso   1.000  C  -0.194194
  C57      1.0000 0.82560  0.86390  0.50231  Biso   1.000  C  0.082200
  C58      1.0000 0.04070  0.91150  0.39023  Biso   1.000  C  0.054324
  C59      1.0000 0.06760  0.86880  0.34947  Biso   1.000  C  -0.148445
  C60      1.0000 0.12260  0.90880  0.30870  Biso   1.000  C  0.000478
  C61      1.0000 0.15530  0.99180  0.30923  Biso   1.000  C  -0.104307
  C62      1.0000 0.13570  0.03650  0.35037  Biso   1.000  C  -0.011467
  C63      1.0000 0.07830  0.99510  0.39040  Biso   1.000  C  -0.163299
  C64      1.0000 0.15110  0.86200  0.26528  Biso   1.000  C  0.558076
  C65      1.0000 0.17490  0.12590  0.35144  Biso   1.000  C  0.610032
  C66      1.0000 0.63010  0.62870  0.49117  Biso   1.000  C  0.069187
  C67      1.0000 0.62280  0.56930  0.45690  Biso   1.000  C  -0.183718
  C68      1.0000 0.69340  0.50160  0.46410  Biso   1.000  C  0.122281
  C69      1.0000 0.76290  0.49550  0.50755  Biso   1.000  C  -0.203132
  C70      1.0000 0.76340  0.55700  0.54004  Biso   1.000  C  0.096464
  C71      1.0000 0.69760  0.43900  0.42701  Biso   1.000  C  0.059277
  C72      1.0000 0.57600  0.41440  0.39906  Biso   1.000  C  -0.173557
  C73      1.0000 0.58170  0.35700  0.36378  Biso   1.000  C  -0.002910
  C74      1.0000 0.70990  0.32550  0.35449  Biso   1.000  C  -0.105763
  C75      1.0000 0.83000  0.34740  0.38310  Biso   1.000  C  0.000981
  C76      1.0000 0.82280  0.40260  0.41952  Biso   1.000  C  -0.170828
  C77      1.0000 0.44500  0.32630  0.33765  Biso   1.000  C  0.576368
  C78      1.0000 0.97150  0.31270  0.37499  Biso   1.000  C  0.602546
  C79      1.0000 0.06630  0.74610  0.98328  Biso   1.000  C  0.091112
  C80      1.0000 0.00030  0.70900  0.94356  Biso   1.000  C  -0.195770
  C81      1.0000 0.02530  0.63100  0.93263  Biso   1.000  C  0.128884
  C82      1.0000 0.11420  0.59450  0.96314  Biso   1.000  C  -0.194484
  C83      1.0000 0.17440  0.63610  0.00231  Biso   1.000  C  0.084778
  C84      1.0000 0.95930  0.58850  0.89023  Biso   1.000  C  0.053361
  C85      1.0000 0.93240  0.63120  0.84947  Biso   1.000  C  -0.148530
  C86      1.0000 0.87740  0.59120  0.80870  Biso   1.000  C  0.007043
  C87      1.0000 0.84470  0.50820  0.80923  Biso   1.000  C  -0.104041
  C88      1.0000 0.86430  0.46350  0.85037  Biso   1.000  C  -0.013073
  C89      1.0000 0.92170  0.50490  0.89040  Biso   1.000  C  -0.163385
  C90      1.0000 0.84890  0.63800  0.76528  Biso   1.000  C  0.565515
  C91      1.0000 0.82510  0.37410  0.85144  Biso   1.000  C  0.605295
  C92      1.0000 0.36990  0.87130  0.99117  Biso   1.000  C  0.071206
  C93      1.0000 0.37720  0.93070  0.95690  Biso   1.000  C  -0.183642
  C94      1.0000 0.30660  0.99840  0.96410  Biso   1.000  C  0.124683
  C95      1.0000 0.23710  0.00450  0.00755  Biso   1.000  C  -0.203231
  C96      1.0000 0.23660  0.94300  0.04004  Biso   1.000  C  0.099469
  C97      1.0000 0.30240  0.06100  0.92701  Biso   1.000  C  0.059417
  C98      1.0000 0.42400  0.08560  0.89906  Biso   1.000  C  -0.174776
  C99      1.0000 0.41830  0.14300  0.86378  Biso   1.000  C  -0.001638
  C100     1.0000 0.29010  0.17450  0.85449  Biso   1.000  C  -0.106538
  C101     1.0000 0.17000  0.15260  0.88310  Biso   1.000  C  0.001282
  C102     1.0000 0.17720  0.09740  0.91952  Biso   1.000  C  -0.171912
  C103     1.0000 0.55500  0.17370  0.83765  Biso   1.000  C  0.570772
  C104     1.0000 0.02850  0.18730  0.87499  Biso   1.000  C  0.595449
  Co1      1.0000 0.80722  0.71979  0.69522  Biso   1.000  Co  1.044891
  Co2      1.0000 0.75545  0.73061  0.57543  Biso   1.000  Co  0.740260
  Co3      1.0000 0.19278  0.78021  0.19522  Biso   1.000  Co  0.863724
  Co4      1.0000 0.24455  0.76939  0.07543  Biso   1.000  Co  0.734068
  Co5      1.0000 0.19278  0.28021  0.30478  Biso   1.000  Co  1.045639
  Co6      1.0000 0.24455  0.26939  0.42457  Biso   1.000  Co  0.744546
  Co7      1.0000 0.80722  0.21979  0.80478  Biso   1.000  Co  0.895261
  Co8      1.0000 0.75545  0.23061  0.92457  Biso   1.000  Co  0.740974
  H1       1.0000 0.04930  0.30000  0.51010  Biso   1.000  H  0.086089
  H2       1.0000 0.93900  0.23670  0.57580  Biso   1.000  H  0.137212
  H3       1.0000 0.13400  0.04080  0.54280  Biso   1.000  H  0.131089
  H4       1.0000 0.23470  0.10940  0.47730  Biso   1.000  H  0.093617
  H5       1.0000 0.95180  0.18850  0.65060  Biso   1.000  H  0.122208
  H6       1.0000 0.80840  0.98090  0.71860  Biso   1.000  H  0.136162
  H7       1.0000 0.93550  0.97530  0.58150  Biso   1.000  H  0.110762
  H8       1.0000 0.41790  0.32510  0.51450  Biso   1.000  H  0.091913
  H9       1.0000 0.43020  0.42520  0.57150  Biso   1.000  H  0.137437
  H10      1.0000 0.19050  0.55080  0.48540  Biso   1.000  H  0.130269
  H11      1.0000 0.19000  0.44870  0.43040  Biso   1.000  H  0.105169
  H12      1.0000 0.51150  0.56270  0.59570  Biso   1.000  H  0.117178
  H13      1.0000 0.28430  0.71080  0.67120  Biso   1.000  H  0.138377
  H14      1.0000 0.09570  0.58430  0.56040  Biso   1.000  H  0.108961
  H15      1.0000 0.95070  0.20000  0.01010  Biso   1.000  H  0.085689
  H16      1.0000 0.06100  0.26330  0.07580  Biso   1.000  H  0.137649
  H17      1.0000 0.86600  0.45920  0.04280  Biso   1.000  H  0.131212
  H18      1.0000 0.76530  0.39060  0.97730  Biso   1.000  H  0.093832
  H19      1.0000 0.04820  0.31150  0.15060  Biso   1.000  H  0.121866
  H20      1.0000 0.19160  0.51910  0.21860  Biso   1.000  H  0.136342
  H21      1.0000 0.06450  0.52470  0.08150  Biso   1.000  H  0.109394
  H22      1.0000 0.58210  0.17490  0.01450  Biso   1.000  H  0.091606
  H23      1.0000 0.56980  0.07480  0.07150  Biso   1.000  H  0.137689
  H24      1.0000 0.80950  0.94920  0.98540  Biso   1.000  H  0.130129
  H25      1.0000 0.81000  0.05130  0.93040  Biso   1.000  H  0.105010
  H26      1.0000 0.48850  0.93730  0.09570  Biso   1.000  H  0.117376
  H27      1.0000 0.71570  0.78920  0.17120  Biso   1.000  H  0.139007
  H28      1.0000 0.90430  0.91570  0.06040  Biso   1.000  H  0.108994
  H29      1.0000 0.95070  0.70000  0.48990  Biso   1.000  H  0.085948
  H30      1.0000 0.06100  0.76330  0.42420  Biso   1.000  H  0.137384
  H31      1.0000 0.86600  0.95920  0.45720  Biso   1.000  H  0.130909
  H32      1.0000 0.76530  0.89060  0.52270  Biso   1.000  H  0.093129
  H33      1.0000 0.04820  0.81150  0.34940  Biso   1.000  H  0.122085
  H34      1.0000 0.19160  0.01910  0.28140  Biso   1.000  H  0.135962
  H35      1.0000 0.06450  0.02470  0.41850  Biso   1.000  H  0.110131
  H36      1.0000 0.58210  0.67490  0.48550  Biso   1.000  H  0.091799
  H37      1.0000 0.56980  0.57480  0.42850  Biso   1.000  H  0.137394
  H38      1.0000 0.80950  0.44920  0.51460  Biso   1.000  H  0.129842
  H39      1.0000 0.81000  0.55130  0.56960  Biso   1.000  H  0.104651
  H40      1.0000 0.48850  0.43730  0.40430  Biso   1.000  H  0.116889
  H41      1.0000 0.71570  0.28920  0.32880  Biso   1.000  H  0.138490
  H42      1.0000 0.90430  0.41570  0.43960  Biso   1.000  H  0.108744
  H43      1.0000 0.04930  0.80000  0.98990  Biso   1.000  H  0.085697
  H44      1.0000 0.93900  0.73670  0.92420  Biso   1.000  H  0.137472
  H45      1.0000 0.13400  0.54080  0.95720  Biso   1.000  H  0.131107
  H46      1.0000 0.23470  0.60940  0.02270  Biso   1.000  H  0.094055
  H47      1.0000 0.95180  0.68850  0.84940  Biso   1.000  H  0.122117
  H48      1.0000 0.80840  0.48090  0.78140  Biso   1.000  H  0.136202
  H49      1.0000 0.93550  0.47530  0.91850  Biso   1.000  H  0.109761
  H50      1.0000 0.41790  0.82510  0.98550  Biso   1.000  H  0.091617
  H51      1.0000 0.43020  0.92520  0.92850  Biso   1.000  H  0.137499
  H52      1.0000 0.19050  0.05080  0.01460  Biso   1.000  H  0.130143
  H53      1.0000 0.19000  0.94870  0.06960  Biso   1.000  H  0.105163
  H54      1.0000 0.51150  0.06270  0.90430  Biso   1.000  H  0.117318
  H55      1.0000 0.28430  0.21080  0.82880  Biso   1.000  H  0.138497
  H56      1.0000 0.09570  0.08430  0.93960  Biso   1.000  H  0.108877
  N1       1.0000 0.15220  0.21107  0.48717  Biso   1.000  N  -0.235229
  N2       1.0000 0.29810  0.37573  0.46763  Biso   1.000  N  -0.252398
  N3       1.0000 0.84780  0.28893  0.98717  Biso   1.000  N  -0.235844
  N4       1.0000 0.70190  0.12427  0.96763  Biso   1.000  N  -0.255197
  N5       1.0000 0.84780  0.78893  0.51283  Biso   1.000  N  -0.236109
  N6       1.0000 0.70190  0.62427  0.53237  Biso   1.000  N  -0.252596
  N7       1.0000 0.15220  0.71107  0.01283  Biso   1.000  N  -0.234388
  N8       1.0000 0.29810  0.87573  0.03237  Biso   1.000  N  -0.254878
  O1       1.0000 0.80540  0.83874  0.68794  Biso   1.000  O  -0.537995
  O2       1.0000 0.81500  0.84106  0.60877  Biso   1.000  O  -0.570162
  O3       1.0000 0.81140  0.10105  0.77209  Biso   1.000  O  -0.472353
  O4       1.0000 0.86450  0.21439  0.73331  Biso   1.000  O  -0.493800
  O5       1.0000 0.67550  0.67392  0.64001  Biso   1.000  O  -0.594979
  O6       1.0000 0.55260  0.69916  0.70352  Biso   1.000  O  -0.496238
  O7       1.0000 0.00580  0.71284  0.66649  Biso   1.000  O  -0.546012
  O8       1.0000 0.94710  0.68776  0.58982  Biso   1.000  O  -0.540174
  O9       1.0000 0.19460  0.66126  0.18794  Biso   1.000  O  -0.485495
  O10      1.0000 0.18500  0.65894  0.10877  Biso   1.000  O  -0.568782
  O11      1.0000 0.18860  0.39895  0.27209  Biso   1.000  O  -0.541817
  O12      1.0000 0.13550  0.28561  0.23331  Biso   1.000  O  -0.539889
  O13      1.0000 0.32450  0.82608  0.14001  Biso   1.000  O  -0.558856
  O14      1.0000 0.44740  0.80084  0.20352  Biso   1.000  O  -0.471932
  O15      1.0000 0.99420  0.78716  0.16649  Biso   1.000  O  -0.515237
  O16      1.0000 0.05290  0.81224  0.08982  Biso   1.000  O  -0.537916
  O17      1.0000 0.19460  0.16126  0.31206  Biso   1.000  O  -0.540008
  O18      1.0000 0.18500  0.15894  0.39123  Biso   1.000  O  -0.571179
  O19      1.0000 0.18860  0.89895  0.22791  Biso   1.000  O  -0.479324
  O20      1.0000 0.13550  0.78561  0.26669  Biso   1.000  O  -0.501399
  O21      1.0000 0.32450  0.32608  0.35999  Biso   1.000  O  -0.591248
  O22      1.0000 0.44740  0.30084  0.29648  Biso   1.000  O  -0.494934
  O23      1.0000 0.99420  0.28716  0.33351  Biso   1.000  O  -0.549208
  O24      1.0000 0.05290  0.31224  0.41018  Biso   1.000  O  -0.546456
  O25      1.0000 0.80540  0.33874  0.81206  Biso   1.000  O  -0.483737
  O26      1.0000 0.81500  0.34106  0.89123  Biso   1.000  O  -0.568127
  O27      1.0000 0.81140  0.60105  0.72791  Biso   1.000  O  -0.542158
  O28      1.0000 0.86450  0.71439  0.76669  Biso   1.000  O  -0.540974
  O29      1.0000 0.67550  0.17392  0.85999  Biso   1.000  O  -0.572516
  O30      1.0000 0.55260  0.19916  0.79648  Biso   1.000  O  -0.487736
  O31      1.0000 0.00580  0.21284  0.83351  Biso   1.000  O  -0.530849
  O32      1.0000 0.94710  0.18776  0.91018  Biso   1.000  O  -0.540135
