data_image0
_cell_length_a       14.163
_cell_length_b       14.163
_cell_length_c       11.568
_cell_angle_alpha    90
_cell_angle_beta     90
_cell_angle_gamma    120

_symmetry_space_group_name_H-M    "P 1"
_symmetry_int_tables_number       1

loop_
  _symmetry_equiv_pos_as_xyz
  'x, y, z'

loop_
  _atom_site_label
  _atom_site_occupancy
  _atom_site_fract_x
  _atom_site_fract_y
  _atom_site_fract_z
  _atom_site_thermal_displace_type
  _atom_site_B_iso_or_equiv
  _atom_site_type_symbol
  _atom_site_charge
  C1       1.0000 0.80330  0.45250  0.86040  Biso   1.000  C  0.233394
  C2       1.0000 0.54750  0.35080  0.19373  Biso   1.000  C  0.234789
  C3       1.0000 0.64920  0.19670  0.52707  Biso   1.000  C  0.234233
  C4       1.0000 0.19670  0.54750  0.36040  Biso   1.000  C  0.233394
  C5       1.0000 0.45250  0.64920  0.69373  Biso   1.000  C  0.234789
  C6       1.0000 0.35080  0.80330  0.02707  Biso   1.000  C  0.234233
  C7       1.0000 0.88740  0.44910  0.93160  Biso   1.000  C  0.105203
  C8       1.0000 0.55090  0.43830  0.26493  Biso   1.000  C  0.105065
  C9       1.0000 0.56170  0.11260  0.59827  Biso   1.000  C  0.104752
  C10      1.0000 0.11260  0.55090  0.43160  Biso   1.000  C  0.105203
  C11      1.0000 0.44910  0.56170  0.76493  Biso   1.000  C  0.105065
  C12      1.0000 0.43830  0.88740  0.09827  Biso   1.000  C  0.104752
  C13      1.0000 0.93890  0.50870  0.03220  Biso   1.000  C  0.104355
  C14      1.0000 0.49130  0.43020  0.36553  Biso   1.000  C  0.103118
  C15      1.0000 0.56980  0.06110  0.69887  Biso   1.000  C  0.103257
  C16      1.0000 0.06110  0.49130  0.53220  Biso   1.000  C  0.104355
  C17      1.0000 0.50870  0.56980  0.86553  Biso   1.000  C  0.103118
  C18      1.0000 0.43020  0.93890  0.19887  Biso   1.000  C  0.103257
  C19      1.0000 0.92210  0.59170  0.09130  Biso   1.000  C  0.232307
  C20      1.0000 0.40830  0.33040  0.42463  Biso   1.000  C  0.231110
  C21      1.0000 0.66960  0.07790  0.75797  Biso   1.000  C  0.232072
  C22      1.0000 0.07790  0.40830  0.59130  Biso   1.000  C  0.232307
  C23      1.0000 0.59170  0.66960  0.92463  Biso   1.000  C  0.231110
  C24      1.0000 0.33040  0.92210  0.25797  Biso   1.000  C  0.232072
  C25      1.0000 0.99960  0.37420  0.93790  Biso   1.000  C  0.065534
  C26      1.0000 0.62580  0.62540  0.27123  Biso   1.000  C  0.065309
  C27      1.0000 0.37460  0.00040  0.60457  Biso   1.000  C  0.065794
  C28      1.0000 0.00040  0.62580  0.43790  Biso   1.000  C  0.065534
  C29      1.0000 0.37420  0.37460  0.77123  Biso   1.000  C  0.065309
  C30      1.0000 0.62540  0.99960  0.10457  Biso   1.000  C  0.065795
  C31      1.0000 0.04700  0.43250  0.03950  Biso   1.000  C  0.067932
  C32      1.0000 0.56750  0.61450  0.37283  Biso   1.000  C  0.067570
  C33      1.0000 0.38550  0.95300  0.70617  Biso   1.000  C  0.066198
  C34      1.0000 0.95300  0.56750  0.53950  Biso   1.000  C  0.067932
  C35      1.0000 0.43250  0.38550  0.87283  Biso   1.000  C  0.067570
  C36      1.0000 0.61450  0.04700  0.20617  Biso   1.000  C  0.066198
  H1       1.0000 0.02320  0.32900  0.90680  Biso   1.000  H  0.109109
  H2       1.0000 0.67100  0.69420  0.24013  Biso   1.000  H  0.108835
  H3       1.0000 0.30580  0.97680  0.57347  Biso   1.000  H  0.109885
  H4       1.0000 0.97680  0.67100  0.40680  Biso   1.000  H  0.109109
  H5       1.0000 0.32900  0.30580  0.74013  Biso   1.000  H  0.108835
  H6       1.0000 0.69420  0.02320  0.07347  Biso   1.000  H  0.109885
  H7       1.0000 0.10010  0.42300  0.07630  Biso   1.000  H  0.108736
  H8       1.0000 0.57700  0.67710  0.40963  Biso   1.000  H  0.108655
  H9       1.0000 0.32290  0.89990  0.74297  Biso   1.000  H  0.108729
  H10      1.0000 0.89990  0.57700  0.57630  Biso   1.000  H  0.108736
  H11      1.0000 0.42300  0.32290  0.90963  Biso   1.000  H  0.108655
  H12      1.0000 0.67710  0.10010  0.24297  Biso   1.000  H  0.108729
  N1       1.0000 0.73950  0.49430  0.87890  Biso   1.000  N  -0.229156
  N2       1.0000 0.50570  0.24520  0.21223  Biso   1.000  N  -0.231616
  N3       1.0000 0.75480  0.26050  0.54557  Biso   1.000  N  -0.230405
  N4       1.0000 0.26050  0.50570  0.37890  Biso   1.000  N  -0.229156
  N5       1.0000 0.49430  0.75480  0.71223  Biso   1.000  N  -0.231616
  N6       1.0000 0.24520  0.73950  0.04557  Biso   1.000  N  -0.230405
  N7       1.0000 0.67880  0.47310  0.78110  Biso   1.000  N  -0.084193
  N8       1.0000 0.52690  0.20570  0.11443  Biso   1.000  N  -0.082729
  N9       1.0000 0.79430  0.32120  0.44777  Biso   1.000  N  -0.082471
  N10      1.0000 0.32120  0.52690  0.28110  Biso   1.000  N  -0.084192
  N11      1.0000 0.47310  0.79430  0.61443  Biso   1.000  N  -0.082729
  N12      1.0000 0.20570  0.67880  0.94777  Biso   1.000  N  -0.082471
  N13      1.0000 0.70650  0.42250  0.70740  Biso   1.000  N  -0.075307
  N14      1.0000 0.57750  0.28400  0.04073  Biso   1.000  N  -0.076316
  N15      1.0000 0.71600  0.29350  0.37407  Biso   1.000  N  -0.076548
  N16      1.0000 0.29350  0.57750  0.20740  Biso   1.000  N  -0.075307
  N17      1.0000 0.42250  0.71600  0.54073  Biso   1.000  N  -0.076316
  N18      1.0000 0.28400  0.70650  0.87407  Biso   1.000  N  -0.076548
  N19      1.0000 0.78440  0.40750  0.75510  Biso   1.000  N  -0.231024
  N20      1.0000 0.59250  0.37690  0.08843  Biso   1.000  N  -0.230901
  N21      1.0000 0.62310  0.21560  0.42177  Biso   1.000  N  -0.231137
  N22      1.0000 0.21560  0.59250  0.25510  Biso   1.000  N  -0.231024
  N23      1.0000 0.40750  0.62310  0.58843  Biso   1.000  N  -0.230901
  N24      1.0000 0.37690  0.78440  0.92177  Biso   1.000  N  -0.231137
  N25      1.0000 0.92050  0.38340  0.88560  Biso   1.000  N  -0.203270
  N26      1.0000 0.61660  0.53710  0.21893  Biso   1.000  N  -0.201782
  N27      1.0000 0.46290  0.07950  0.55227  Biso   1.000  N  -0.202903
  N28      1.0000 0.07950  0.61660  0.38560  Biso   1.000  N  -0.203270
  N29      1.0000 0.38340  0.46290  0.71893  Biso   1.000  N  -0.201782
  N30      1.0000 0.53710  0.92050  0.05227  Biso   1.000  N  -0.202904
  N31      1.0000 0.01920  0.49970  0.08410  Biso   1.000  N  -0.226696
  N32      1.0000 0.50030  0.51950  0.41743  Biso   1.000  N  -0.225265
  N33      1.0000 0.48050  0.98080  0.75077  Biso   1.000  N  -0.225013
  N34      1.0000 0.98080  0.50030  0.58410  Biso   1.000  N  -0.226696
  N35      1.0000 0.49970  0.48050  0.91743  Biso   1.000  N  -0.225265
  N36      1.0000 0.51950  0.01920  0.25077  Biso   1.000  N  -0.225013
  N37      1.0000 0.83410  0.60280  0.09800  Biso   1.000  N  -0.235433
  N38      1.0000 0.39720  0.23130  0.43133  Biso   1.000  N  -0.235015
  N39      1.0000 0.76870  0.16590  0.76467  Biso   1.000  N  -0.234891
  N40      1.0000 0.16590  0.39720  0.59800  Biso   1.000  N  -0.235433
  N41      1.0000 0.60280  0.76870  0.93133  Biso   1.000  N  -0.235015
  N42      1.0000 0.23130  0.83410  0.26467  Biso   1.000  N  -0.234891
  N43      1.0000 0.86440  0.69110  0.16860  Biso   1.000  N  -0.064489
  N44      1.0000 0.30890  0.17330  0.50193  Biso   1.000  N  -0.063452
  N45      1.0000 0.82670  0.13560  0.83527  Biso   1.000  N  -0.065307
  N46      1.0000 0.13560  0.30890  0.66860  Biso   1.000  N  -0.064488
  N47      1.0000 0.69110  0.82670  0.00193  Biso   1.000  N  -0.063452
  N48      1.0000 0.17330  0.86440  0.33527  Biso   1.000  N  -0.065306
  N49      1.0000 0.96480  0.73010  0.20020  Biso   1.000  N  -0.048397
  N50      1.0000 0.26990  0.23470  0.53353  Biso   1.000  N  -0.051006
  N51      1.0000 0.76530  0.03520  0.86687  Biso   1.000  N  -0.048317
  N52      1.0000 0.03520  0.26990  0.70020  Biso   1.000  N  -0.048399
  N53      1.0000 0.73010  0.76530  0.03353  Biso   1.000  N  -0.051007
  N54      1.0000 0.23470  0.96480  0.36687  Biso   1.000  N  -0.048319
  N55      1.0000 0.00360  0.66860  0.15450  Biso   1.000  N  -0.225737
  N56      1.0000 0.33140  0.33500  0.48783  Biso   1.000  N  -0.223195
  N57      1.0000 0.66500  0.99640  0.82117  Biso   1.000  N  -0.224727
  N58      1.0000 0.99640  0.33140  0.65450  Biso   1.000  N  -0.225736
  N59      1.0000 0.66860  0.66500  0.98783  Biso   1.000  N  -0.223194
  N60      1.0000 0.33500  0.00360  0.32117  Biso   1.000  N  -0.224726
  Zn1      1.0000 0.68099  0.53273  0.02883  Biso   1.000  Zn  0.596587
  Zn2      1.0000 0.46727  0.14826  0.36216  Biso   1.000  Zn  0.596741
  Zn3      1.0000 0.85174  0.31901  0.69550  Biso   1.000  Zn  0.597429
  Zn4      1.0000 0.31901  0.46727  0.52883  Biso   1.000  Zn  0.596587
  Zn5      1.0000 0.53273  0.85174  0.86216  Biso   1.000  Zn  0.596741
  Zn6      1.0000 0.14826  0.68099  0.19550  Biso   1.000  Zn  0.597429
