data_image0
_cell_length_a       18.3411
_cell_length_b       18.3411
_cell_length_c       52.6041
_cell_angle_alpha    90
_cell_angle_beta     90
_cell_angle_gamma    120

_symmetry_space_group_name_H-M    "P 1"
_symmetry_int_tables_number       1

loop_
  _symmetry_equiv_pos_as_xyz
  'x, y, z'

loop_
  _atom_site_label
  _atom_site_occupancy
  _atom_site_fract_x
  _atom_site_fract_y
  _atom_site_fract_z
  _atom_site_thermal_displace_type
  _atom_site_B_iso_or_equiv
  _atom_site_type_symbol
  _atom_site_charge
  C1       1.0000 0.26388  0.13422  0.21220  Biso   1.000  C  0.063325
  C2       1.0000 0.25170  0.06201  0.22529  Biso   1.000  C  -0.119672
  C3       1.0000 0.22563  0.04840  0.25085  Biso   1.000  C  -0.028011
  C4       1.0000 0.21332  0.10892  0.26344  Biso   1.000  C  -0.091962
  C5       1.0000 0.22475  0.18132  0.25078  Biso   1.000  C  -0.028328
  C6       1.0000 0.25072  0.19378  0.22520  Biso   1.000  C  -0.120729
  C7       1.0000 0.92708  0.46433  0.54504  Biso   1.000  C  0.062538
  C8       1.0000 0.91645  0.39310  0.55835  Biso   1.000  C  -0.119153
  C9       1.0000 0.89393  0.38151  0.58419  Biso   1.000  C  -0.030284
  C10      1.0000 0.88415  0.44338  0.59691  Biso   1.000  C  -0.090770
  C11      1.0000 0.89464  0.51523  0.58409  Biso   1.000  C  -0.025319
  C12      1.0000 0.91700  0.52561  0.55818  Biso   1.000  C  -0.120671
  C13      1.0000 0.59899  0.79738  0.87898  Biso   1.000  C  0.065362
  C14      1.0000 0.58606  0.72482  0.89202  Biso   1.000  C  -0.122309
  C15      1.0000 0.56007  0.71135  0.91759  Biso   1.000  C  -0.026593
  C16      1.0000 0.54841  0.77223  0.93022  Biso   1.000  C  -0.092886
  C17      1.0000 0.56051  0.84494  0.91759  Biso   1.000  C  -0.025219
  C18      1.0000 0.58658  0.85734  0.89203  Biso   1.000  C  -0.121385
  C19      1.0000 0.84913  0.13143  0.21212  Biso   1.000  C  0.060134
  C20      1.0000 0.78935  0.05903  0.22516  Biso   1.000  C  -0.120775
  C21      1.0000 0.80129  0.04609  0.25082  Biso   1.000  C  -0.027522
  C22      1.0000 0.87344  0.10731  0.26353  Biso   1.000  C  -0.089753
  C23      1.0000 0.93419  0.17991  0.25089  Biso   1.000  C  -0.029951
  C24      1.0000 0.92106  0.19182  0.22523  Biso   1.000  C  -0.118149
  C25      1.0000 0.52338  0.46682  0.54501  Biso   1.000  C  0.062511
  C26      1.0000 0.46230  0.39506  0.55804  Biso   1.000  C  -0.121061
  C27      1.0000 0.47280  0.38255  0.58389  Biso   1.000  C  -0.029211
  C28      1.0000 0.54457  0.44374  0.59678  Biso   1.000  C  -0.093105
  C29      1.0000 0.60632  0.51577  0.58417  Biso   1.000  C  -0.021599
  C30      1.0000 0.59465  0.52721  0.55837  Biso   1.000  C  -0.122941
  C31      1.0000 0.18429  0.79836  0.87884  Biso   1.000  C  0.064264
  C32      1.0000 0.25666  0.85810  0.89192  Biso   1.000  C  -0.122245
  C33      1.0000 0.27012  0.84548  0.91749  Biso   1.000  C  -0.019981
  C34      1.0000 0.20923  0.77287  0.93008  Biso   1.000  C  -0.093644
  C35      1.0000 0.13662  0.71225  0.91741  Biso   1.000  C  -0.026631
  C36      1.0000 0.12438  0.72585  0.89182  Biso   1.000  C  -0.122925
  C37      1.0000 0.84971  0.71958  0.21207  Biso   1.000  C  0.063898
  C38      1.0000 0.92212  0.73218  0.22513  Biso   1.000  C  -0.120818
  C39      1.0000 0.93545  0.75779  0.25073  Biso   1.000  C  -0.026740
  C40      1.0000 0.87442  0.76912  0.26339  Biso   1.000  C  -0.091972
  C41      1.0000 0.80179  0.75717  0.25075  Biso   1.000  C  -0.025866
  C42      1.0000 0.78966  0.73179  0.22512  Biso   1.000  C  -0.123022
  C43      1.0000 0.52128  0.05934  0.54488  Biso   1.000  C  0.062737
  C44      1.0000 0.46087  0.07012  0.55824  Biso   1.000  C  -0.120467
  C45      1.0000 0.47220  0.09305  0.58404  Biso   1.000  C  -0.031212
  C46      1.0000 0.54405  0.10306  0.59669  Biso   1.000  C  -0.091153
  C47      1.0000 0.60524  0.09243  0.58381  Biso   1.000  C  -0.030330
  C48      1.0000 0.59288  0.06968  0.55793  Biso   1.000  C  -0.118415
  C49      1.0000 0.18718  0.39085  0.87818  Biso   1.000  C  0.064538
  C50      1.0000 0.12652  0.40134  0.89150  Biso   1.000  C  -0.123310
  C51      1.0000 0.13729  0.42349  0.91736  Biso   1.000  C  -0.025025
  C52      1.0000 0.20888  0.43313  0.93009  Biso   1.000  C  -0.092572
  C53      1.0000 0.27032  0.42282  0.91725  Biso   1.000  C  -0.025771
  C54      1.0000 0.25847  0.40076  0.89131  Biso   1.000  C  -0.122705
  C55      1.0000 0.12880  0.27282  0.68926  Biso   1.000  C  0.060186
  C56      1.0000 0.18875  0.26052  0.67619  Biso   1.000  C  -0.120817
  C57      1.0000 0.17647  0.23492  0.65059  Biso   1.000  C  -0.029272
  C58      1.0000 0.10382  0.22300  0.63797  Biso   1.000  C  -0.090218
  C59      1.0000 0.04290  0.23453  0.65063  Biso   1.000  C  -0.031794
  C60      1.0000 0.05638  0.26030  0.67623  Biso   1.000  C  -0.119444
  C61      1.0000 0.79146  0.59765  0.02334  Biso   1.000  C  0.061380
  C62      1.0000 0.85198  0.58692  0.01001  Biso   1.000  C  -0.119390
  C63      1.0000 0.84055  0.56356  0.98423  Biso   1.000  C  -0.027930
  C64      1.0000 0.76838  0.55286  0.97161  Biso   1.000  C  -0.090303
  C65      1.0000 0.70704  0.56327  0.98447  Biso   1.000  C  -0.026851
  C66      1.0000 0.71957  0.58660  0.01030  Biso   1.000  C  -0.119994
  C67      1.0000 0.45896  0.93753  0.35612  Biso   1.000  C  0.064370
  C68      1.0000 0.38679  0.92564  0.34306  Biso   1.000  C  -0.121867
  C69      1.0000 0.37324  0.89993  0.31746  Biso   1.000  C  -0.025233
  C70      1.0000 0.43374  0.88766  0.30483  Biso   1.000  C  -0.092959
  C71      1.0000 0.50606  0.89886  0.31748  Biso   1.000  C  -0.027135
  C72      1.0000 0.51850  0.92455  0.34307  Biso   1.000  C  -0.120759
  C73      1.0000 0.12737  0.86277  0.69008  Biso   1.000  C  0.064464
  C74      1.0000 0.18768  0.93412  0.67674  Biso   1.000  C  -0.122606
  C75      1.0000 0.17635  0.94569  0.65092  Biso   1.000  C  -0.029399
  C76      1.0000 0.10450  0.88378  0.63828  Biso   1.000  C  -0.092189
  C77      1.0000 0.04337  0.81193  0.65116  Biso   1.000  C  -0.023697
  C78      1.0000 0.05581  0.80151  0.67702  Biso   1.000  C  -0.121210
  C79      1.0000 0.79185  0.19170  0.02318  Biso   1.000  C  0.064052
  C80      1.0000 0.85220  0.26300  0.00984  Biso   1.000  C  -0.122729
  C81      1.0000 0.84083  0.27467  0.98404  Biso   1.000  C  -0.025253
  C82      1.0000 0.76893  0.21285  0.97140  Biso   1.000  C  -0.091892
  C83      1.0000 0.70779  0.14099  0.98427  Biso   1.000  C  -0.022548
  C84      1.0000 0.72025  0.13048  0.01013  Biso   1.000  C  -0.122120
  C85      1.0000 0.45807  0.52290  0.35620  Biso   1.000  C  0.061895
  C86      1.0000 0.51812  0.59502  0.34308  Biso   1.000  C  -0.121470
  C87      1.0000 0.50564  0.60851  0.31751  Biso   1.000  C  -0.026595
  C88      1.0000 0.43276  0.54798  0.30495  Biso   1.000  C  -0.092095
  C89      1.0000 0.37177  0.47568  0.31764  Biso   1.000  C  -0.026311
  C90      1.0000 0.38530  0.46333  0.34323  Biso   1.000  C  -0.119812
  C91      1.0000 0.72004  0.86164  0.69016  Biso   1.000  C  0.064689
  C92      1.0000 0.73097  0.80076  0.67711  Biso   1.000  C  -0.120341
  C93      1.0000 0.75389  0.81135  0.65124  Biso   1.000  C  -0.023736
  C94      1.0000 0.76408  0.88299  0.63837  Biso   1.000  C  -0.092003
  C95      1.0000 0.75351  0.94452  0.65100  Biso   1.000  C  -0.031179
  C96      1.0000 0.73051  0.93277  0.67681  Biso   1.000  C  -0.118688
  C97      1.0000 0.38452  0.18987  0.02336  Biso   1.000  C  0.061917
  C98      1.0000 0.39550  0.12946  0.01006  Biso   1.000  C  -0.119085
  C99      1.0000 0.41854  0.14071  0.98425  Biso   1.000  C  -0.024243
  C100     1.0000 0.42859  0.21254  0.97157  Biso   1.000  C  -0.092137
  C101     1.0000 0.41786  0.27373  0.98440  Biso   1.000  C  -0.030440
  C102     1.0000 0.39494  0.26141  0.01026  Biso   1.000  C  -0.117448
  C103     1.0000 0.04461  0.52472  0.35607  Biso   1.000  C  0.062990
  C104     1.0000 0.05744  0.59721  0.34302  Biso   1.000  C  -0.119773
  C105     1.0000 0.08298  0.61043  0.31742  Biso   1.000  C  -0.028480
  C106     1.0000 0.09420  0.54933  0.30475  Biso   1.000  C  -0.092323
  C107     1.0000 0.08209  0.47663  0.31739  Biso   1.000  C  -0.028078
  C108     1.0000 0.05650  0.46448  0.34299  Biso   1.000  C  -0.121550
  C109     1.0000 0.89902  0.54191  0.97121  Biso   1.000  C  0.610399
  C110     1.0000 0.07878  0.44509  0.93037  Biso   1.000  C  0.609902
  C111     1.0000 0.89907  0.35491  0.97104  Biso   1.000  C  0.610607
  C112     1.0000 0.07822  0.63175  0.93026  Biso   1.000  C  0.611752
  C113     1.0000 0.56408  0.87629  0.30461  Biso   1.000  C  0.610073
  C114     1.0000 0.74324  0.77890  0.26368  Biso   1.000  C  0.609088
  C115     1.0000 0.56393  0.68899  0.30462  Biso   1.000  C  0.608693
  C116     1.0000 0.74305  0.96565  0.26372  Biso   1.000  C  0.611034
  C117     1.0000 0.41398  0.11506  0.59704  Biso   1.000  C  0.612899
  C118     1.0000 0.23485  0.21287  0.63771  Biso   1.000  C  0.611857
  C119     1.0000 0.41415  0.30218  0.59678  Biso   1.000  C  0.610898
  C120     1.0000 0.23466  0.02580  0.63786  Biso   1.000  C  0.610926
  C121     1.0000 0.53758  0.63078  0.93048  Biso   1.000  C  0.610473
  C122     1.0000 0.43954  0.35403  0.97146  Biso   1.000  C  0.613314
  C123     1.0000 0.35038  0.44408  0.93028  Biso   1.000  C  0.609398
  C124     1.0000 0.62657  0.54114  0.97156  Biso   1.000  C  0.610350
  C125     1.0000 0.29277  0.87791  0.30457  Biso   1.000  C  0.610203
  C126     1.0000 0.01611  0.78043  0.26360  Biso   1.000  C  0.610712
  C127     1.0000 0.10546  0.69099  0.30454  Biso   1.000  C  0.612136
  C128     1.0000 0.20330  0.96783  0.26371  Biso   1.000  C  0.610919
  C129     1.0000 0.68552  0.11402  0.59676  Biso   1.000  C  0.611239
  C130     1.0000 0.96218  0.21181  0.63779  Biso   1.000  C  0.612403
  C131     1.0000 0.87211  0.30128  0.59715  Biso   1.000  C  0.611984
  C132     1.0000 0.77505  0.02459  0.63796  Biso   1.000  C  0.612296
  C133     1.0000 0.44048  0.08241  0.97125  Biso   1.000  C  0.604286
  C134     1.0000 0.53807  0.90315  0.93043  Biso   1.000  C  0.606702
  C135     1.0000 0.62744  0.08236  0.97137  Biso   1.000  C  0.606198
  C136     1.0000 0.35079  0.90340  0.93036  Biso   1.000  C  0.605641
  C137     1.0000 0.20215  0.23934  0.26364  Biso   1.000  C  0.612253
  C138     1.0000 0.10425  0.41826  0.30452  Biso   1.000  C  0.610519
  C139     1.0000 0.01457  0.23840  0.26380  Biso   1.000  C  0.610864
  C140     1.0000 0.29115  0.41762  0.30478  Biso   1.000  C  0.609489
  C141     1.0000 0.77592  0.75296  0.63832  Biso   1.000  C  0.605597
  C142     1.0000 0.87324  0.57396  0.59710  Biso   1.000  C  0.607472
  C143     1.0000 0.96306  0.75320  0.63824  Biso   1.000  C  0.606520
  C144     1.0000 0.68645  0.57407  0.59724  Biso   1.000  C  0.605145
  C145     1.0000 0.16270  0.34774  0.79666  Biso   1.000  C  0.030927
  C146     1.0000 0.19029  0.30355  0.81259  Biso   1.000  C  0.090773
  C147     1.0000 0.19817  0.31779  0.83901  Biso   1.000  C  -0.183799
  C148     1.0000 0.17867  0.37536  0.85022  Biso   1.000  C  0.067447
  C149     1.0000 0.15186  0.41929  0.83454  Biso   1.000  C  -0.138426
  C150     1.0000 0.14398  0.40598  0.80829  Biso   1.000  C  -0.128012
  C151     1.0000 0.15489  0.33152  0.76987  Biso   1.000  C  0.034579
  C152     1.0000 0.12750  0.37205  0.75258  Biso   1.000  C  -0.127623
  C153     1.0000 0.11981  0.35337  0.72661  Biso   1.000  C  -0.139144
  C154     1.0000 0.13938  0.29412  0.71686  Biso   1.000  C  0.069377
  C155     1.0000 0.16720  0.25371  0.73368  Biso   1.000  C  -0.181555
  C156     1.0000 0.17493  0.27161  0.75987  Biso   1.000  C  0.086451
  C157     1.0000 0.20961  0.24511  0.80209  Biso   1.000  C  -0.142851
  C158     1.0000 0.20201  0.22934  0.77608  Biso   1.000  C  -0.140658
  C159     1.0000 0.49473  0.01423  0.46345  Biso   1.000  C  0.032217
  C160     1.0000 0.52298  0.97061  0.47938  Biso   1.000  C  0.084953
  C161     1.0000 0.53158  0.98551  0.50577  Biso   1.000  C  -0.181923
  C162     1.0000 0.51214  0.04318  0.51695  Biso   1.000  C  0.065279
  C163     1.0000 0.48469  0.08653  0.50126  Biso   1.000  C  -0.137171
  C164     1.0000 0.47607  0.07256  0.47505  Biso   1.000  C  -0.129457
  C165     1.0000 0.48629  0.99743  0.43668  Biso   1.000  C  0.033054
  C166     1.0000 0.45837  0.03750  0.41940  Biso   1.000  C  -0.129153
  C167     1.0000 0.45025  0.01840  0.39345  Biso   1.000  C  -0.138171
  C168     1.0000 0.46979  0.95910  0.38372  Biso   1.000  C  0.062969
  C169     1.0000 0.49801  0.91907  0.40056  Biso   1.000  C  -0.179854
  C170     1.0000 0.50629  0.93749  0.42672  Biso   1.000  C  0.086306
  C171     1.0000 0.54224  0.91211  0.46891  Biso   1.000  C  -0.139510
  C172     1.0000 0.53398  0.89575  0.44293  Biso   1.000  C  -0.141187
  C173     1.0000 0.81670  0.64335  0.10474  Biso   1.000  C  0.035661
  C174     1.0000 0.78873  0.68689  0.08867  Biso   1.000  C  0.087767
  C175     1.0000 0.78077  0.67196  0.06227  Biso   1.000  C  -0.179357
  C176     1.0000 0.80060  0.61436  0.05124  Biso   1.000  C  0.067577
  C177     1.0000 0.82803  0.57130  0.06705  Biso   1.000  C  -0.136627
  C178     1.0000 0.83599  0.58528  0.09327  Biso   1.000  C  -0.128716
  C179     1.0000 0.82424  0.65995  0.13152  Biso   1.000  C  0.036574
  C180     1.0000 0.85170  0.61982  0.14892  Biso   1.000  C  -0.128779
  C181     1.0000 0.85908  0.63877  0.17487  Biso   1.000  C  -0.137319
  C182     1.0000 0.83917  0.69794  0.18449  Biso   1.000  C  0.067423
  C183     1.0000 0.81118  0.73790  0.16754  Biso   1.000  C  -0.178830
  C184     1.0000 0.80374  0.71970  0.14136  Biso   1.000  C  0.086182
  C185     1.0000 0.76902  0.74525  0.09902  Biso   1.000  C  -0.140467
  C186     1.0000 0.77646  0.76146  0.12500  Biso   1.000  C  -0.138425
  C187     1.0000 0.15927  0.83309  0.79830  Biso   1.000  C  0.035743
  C188     1.0000 0.13891  0.75283  0.80811  Biso   1.000  C  0.087794
  C189     1.0000 0.14615  0.74191  0.83428  Biso   1.000  C  -0.180554
  C190     1.0000 0.17380  0.80969  0.85127  Biso   1.000  C  0.066811
  C191     1.0000 0.19356  0.88879  0.84170  Biso   1.000  C  -0.136303
  C192     1.0000 0.18636  0.90052  0.81575  Biso   1.000  C  -0.128014
  C193     1.0000 0.15200  0.84228  0.77152  Biso   1.000  C  0.034325
  C194     1.0000 0.17119  0.91964  0.76005  Biso   1.000  C  -0.128393
  C195     1.0000 0.16348  0.92574  0.73382  Biso   1.000  C  -0.136172
  C196     1.0000 0.13641  0.85531  0.71799  Biso   1.000  C  0.066681
  C197     1.0000 0.11675  0.77794  0.72902  Biso   1.000  C  -0.180507
  C198     1.0000 0.12442  0.77090  0.75542  Biso   1.000  C  0.089767
  C199     1.0000 0.11200  0.68392  0.79172  Biso   1.000  C  -0.140473
  C200     1.0000 0.10480  0.69283  0.76574  Biso   1.000  C  -0.140431
  C201     1.0000 0.50251  0.49123  0.46356  Biso   1.000  C  0.034281
  C202     1.0000 0.43110  0.46324  0.47967  Biso   1.000  C  0.087962
  C203     1.0000 0.43827  0.45571  0.50607  Biso   1.000  C  -0.183438
  C204     1.0000 0.51581  0.47593  0.51710  Biso   1.000  C  0.066527
  C205     1.0000 0.58628  0.50352  0.50125  Biso   1.000  C  -0.138732
  C206     1.0000 0.58005  0.51110  0.47502  Biso   1.000  C  -0.130756
  C207     1.0000 0.49316  0.49825  0.43677  Biso   1.000  C  0.031694
  C208     1.0000 0.56055  0.52548  0.41930  Biso   1.000  C  -0.129221
  C209     1.0000 0.54867  0.53245  0.39335  Biso   1.000  C  -0.138454
  C210     1.0000 0.46946  0.51238  0.38378  Biso   1.000  C  0.063941
  C211     1.0000 0.40170  0.48450  0.40079  Biso   1.000  C  -0.179776
  C212     1.0000 0.41276  0.47739  0.42697  Biso   1.000  C  0.087345
  C213     1.0000 0.35286  0.44304  0.46935  Biso   1.000  C  -0.141966
  C214     1.0000 0.34383  0.45010  0.44337  Biso   1.000  C  -0.139956
  C215     1.0000 0.81672  0.17268  0.10465  Biso   1.000  C  0.035156
  C216     1.0000 0.78956  0.10106  0.08867  Biso   1.000  C  0.086026
  C217     1.0000 0.78166  0.10753  0.06226  Biso   1.000  C  -0.179911
  C218     1.0000 0.80080  0.18459  0.05110  Biso   1.000  C  0.066466
  C219     1.0000 0.82741  0.25519  0.06681  Biso   1.000  C  -0.135995
  C220     1.0000 0.83528  0.24965  0.09305  Biso   1.000  C  -0.131497
  C221     1.0000 0.82420  0.16414  0.13145  Biso   1.000  C  0.033592
  C222     1.0000 0.85087  0.23188  0.14876  Biso   1.000  C  -0.129983
  C223     1.0000 0.85812  0.22079  0.17474  Biso   1.000  C  -0.138059
  C224     1.0000 0.83889  0.14206  0.18449  Biso   1.000  C  0.068123
  C225     1.0000 0.81178  0.07399  0.16763  Biso   1.000  C  -0.180927
  C226     1.0000 0.80444  0.08425  0.14142  Biso   1.000  C  0.087246
  C227     1.0000 0.77059  0.02336  0.09915  Biso   1.000  C  -0.140525
  C228     1.0000 0.77798  0.01508  0.12517  Biso   1.000  C  -0.139460
  C229     1.0000 0.67518  0.84109  0.77163  Biso   1.000  C  0.035270
  C230     1.0000 0.63195  0.76952  0.75557  Biso   1.000  C  0.087133
  C231     1.0000 0.64656  0.77656  0.72916  Biso   1.000  C  -0.180106
  C232     1.0000 0.70358  0.85411  0.71808  Biso   1.000  C  0.064939
  C233     1.0000 0.74635  0.92471  0.73388  Biso   1.000  C  -0.137364
  C234     1.0000 0.73264  0.91862  0.76012  Biso   1.000  C  -0.128799
  C235     1.0000 0.65884  0.83192  0.79842  Biso   1.000  C  0.035190
  C236     1.0000 0.69877  0.89949  0.81584  Biso   1.000  C  -0.128066
  C237     1.0000 0.67989  0.88779  0.84179  Biso   1.000  C  -0.136722
  C238     1.0000 0.62094  0.80860  0.85141  Biso   1.000  C  0.065040
  C239     1.0000 0.58132  0.74065  0.83445  Biso   1.000  C  -0.180600
  C240     1.0000 0.59951  0.75152  0.80827  Biso   1.000  C  0.087254
  C241     1.0000 0.57416  0.69128  0.76593  Biso   1.000  C  -0.141010
  C242     1.0000 0.55810  0.68242  0.79193  Biso   1.000  C  -0.140474
  C243     1.0000 0.97026  0.48331  0.46352  Biso   1.000  C  0.033617
  C244     1.0000 0.01428  0.55508  0.47947  Biso   1.000  C  0.087283
  C245     1.0000 0.00009  0.54861  0.50589  Biso   1.000  C  -0.183665
  C246     1.0000 0.94274  0.47143  0.51709  Biso   1.000  C  0.066257
  C247     1.0000 0.89905  0.40069  0.50140  Biso   1.000  C  -0.137213
  C248     1.0000 0.91233  0.40622  0.47515  Biso   1.000  C  -0.130780
  C249     1.0000 0.98629  0.49185  0.43671  Biso   1.000  C  0.033129
  C250     1.0000 0.94574  0.42399  0.41942  Biso   1.000  C  -0.131175
  C251     1.0000 0.96422  0.43510  0.39344  Biso   1.000  C  -0.137760
  C252     1.0000 0.02335  0.51398  0.38368  Biso   1.000  C  0.063939
  C253     1.0000 0.06373  0.58216  0.40053  Biso   1.000  C  -0.180838
  C254     1.0000 0.04596  0.57188  0.42672  Biso   1.000  C  0.088400
  C255     1.0000 0.07245  0.63293  0.46896  Biso   1.000  C  -0.141101
  C256     1.0000 0.08811  0.64121  0.44295  Biso   1.000  C  -0.141351
  C257     1.0000 0.32355  0.15905  0.13164  Biso   1.000  C  0.033222
  C258     1.0000 0.26400  0.17987  0.14146  Biso   1.000  C  0.091312
  C259     1.0000 0.24588  0.17273  0.16763  Biso   1.000  C  -0.182239
  C260     1.0000 0.28580  0.14484  0.18463  Biso   1.000  C  0.068195
  C261     1.0000 0.34497  0.12485  0.17505  Biso   1.000  C  -0.138767
  C262     1.0000 0.36379  0.13186  0.14909  Biso   1.000  C  -0.128339
  C263     1.0000 0.33982  0.16603  0.10484  Biso   1.000  C  0.036155
  C264     1.0000 0.39751  0.14622  0.09337  Biso   1.000  C  -0.127613
  C265     1.0000 0.41116  0.15367  0.06713  Biso   1.000  C  -0.138203
  C266     1.0000 0.36808  0.18104  0.05129  Biso   1.000  C  0.065679
  C267     1.0000 0.31079  0.20126  0.06233  Biso   1.000  C  -0.178987
  C268     1.0000 0.29625  0.19388  0.08874  Biso   1.000  C  0.086137
  C269     1.0000 0.22226  0.20708  0.12507  Biso   1.000  C  -0.142747
  C270     1.0000 0.23823  0.21407  0.09907  Biso   1.000  C  -0.140261
  Cu1      1.0000 0.93912  0.46863  0.93053  Biso   1.000  Cu  0.957012
  Cu2      1.0000 0.03837  0.51819  0.97090  Biso   1.000  Cu  0.957468
  Cu3      1.0000 0.60385  0.80253  0.26399  Biso   1.000  Cu  0.958232
  Cu4      1.0000 0.70314  0.85216  0.30435  Biso   1.000  Cu  0.956461
  Cu5      1.0000 0.27476  0.13909  0.59716  Biso   1.000  Cu  0.961821
  Cu6      1.0000 0.37405  0.18891  0.63752  Biso   1.000  Cu  0.962281
  Cu7      1.0000 0.51331  0.46757  0.93080  Biso   1.000  Cu  0.957524
  Cu8      1.0000 0.46345  0.51715  0.97111  Biso   1.000  Cu  0.957441
  Cu9      1.0000 0.12963  0.85417  0.30428  Biso   1.000  Cu  0.956581
  Cu10     1.0000 0.17929  0.80458  0.26392  Biso   1.000  Cu  0.956761
  Cu11     1.0000 0.79877  0.18757  0.63760  Biso   1.000  Cu  0.960786
  Cu12     1.0000 0.84845  0.13796  0.59725  Biso   1.000  Cu  0.960997
  Cu13     1.0000 0.46434  0.94310  0.97101  Biso   1.000  Cu  0.931778
  Cu14     1.0000 0.51405  0.04238  0.93066  Biso   1.000  Cu  0.931992
  Cu15     1.0000 0.12811  0.27879  0.30437  Biso   1.000  Cu  0.954873
  Cu16     1.0000 0.17777  0.37805  0.26401  Biso   1.000  Cu  0.954938
  Cu17     1.0000 0.79993  0.61383  0.63790  Biso   1.000  Cu  0.931200
  Cu18     1.0000 0.84957  0.71327  0.59759  Biso   1.000  Cu  0.933444
  H1       1.0000 0.25893  0.01453  0.21519  Biso   1.000  H  0.117431
  H2       1.0000 0.19179  0.09814  0.28298  Biso   1.000  H  0.128272
  H3       1.0000 0.25937  0.24921  0.21522  Biso   1.000  H  0.118077
  H4       1.0000 0.92359  0.34544  0.54833  Biso   1.000  H  0.116969
  H5       1.0000 0.86516  0.43401  0.61669  Biso   1.000  H  0.127528
  H6       1.0000 0.92233  0.57920  0.54787  Biso   1.000  H  0.117028
  H7       1.0000 0.59489  0.67809  0.88207  Biso   1.000  H  0.118442
  H8       1.0000 0.52687  0.76152  0.94976  Biso   1.000  H  0.127955
  H9       1.0000 0.59365  0.91193  0.88191  Biso   1.000  H  0.118812
  H10      1.0000 0.73416  0.01201  0.21514  Biso   1.000  H  0.117645
  H11      1.0000 0.88384  0.09696  0.28314  Biso   1.000  H  0.128847
  H12      1.0000 0.96867  0.24633  0.21510  Biso   1.000  H  0.115854
  H13      1.0000 0.40871  0.34695  0.54770  Biso   1.000  H  0.117110
  H14      1.0000 0.55399  0.43374  0.61652  Biso   1.000  H  0.128842
  H15      1.0000 0.64220  0.58228  0.54843  Biso   1.000  H  0.118300
  H16      1.0000 0.30434  0.91265  0.88182  Biso   1.000  H  0.118104
  H17      1.0000 0.21986  0.76203  0.94962  Biso   1.000  H  0.128980
  H18      1.0000 0.06885  0.67929  0.88183  Biso   1.000  H  0.118145
  H19      1.0000 0.96989  0.72558  0.21498  Biso   1.000  H  0.117866
  H20      1.0000 0.88495  0.79024  0.28297  Biso   1.000  H  0.128647
  H21      1.0000 0.73410  0.72283  0.21515  Biso   1.000  H  0.117952
  H22      1.0000 0.40588  0.06275  0.54829  Biso   1.000  H  0.117507
  H23      1.0000 0.55395  0.12235  0.61644  Biso   1.000  H  0.128921
  H24      1.0000 0.64098  0.06420  0.54758  Biso   1.000  H  0.115755
  H25      1.0000 0.07178  0.39434  0.88147  Biso   1.000  H  0.117609
  H26      1.0000 0.21838  0.45186  0.94989  Biso   1.000  H  0.129802
  H27      1.0000 0.30676  0.39552  0.88100  Biso   1.000  H  0.117156
  H28      1.0000 0.24432  0.26944  0.68615  Biso   1.000  H  0.116481
  H29      1.0000 0.09316  0.20170  0.61841  Biso   1.000  H  0.128860
  H30      1.0000 0.00868  0.26698  0.68639  Biso   1.000  H  0.116896
  H31      1.0000 0.90716  0.59474  0.01995  Biso   1.000  H  0.116497
  H32      1.0000 0.75837  0.53323  0.95189  Biso   1.000  H  0.128074
  H33      1.0000 0.67140  0.59202  0.02063  Biso   1.000  H  0.118340
  H34      1.0000 0.33935  0.93282  0.35319  Biso   1.000  H  0.116804
  H35      1.0000 0.42302  0.86637  0.28527  Biso   1.000  H  0.128476
  H36      1.0000 0.57394  0.93309  0.35302  Biso   1.000  H  0.117600
  H37      1.0000 0.24261  0.98179  0.68670  Biso   1.000  H  0.117798
  H38      1.0000 0.09457  0.89314  0.61853  Biso   1.000  H  0.128613
  H39      1.0000 0.00776  0.74785  0.68735  Biso   1.000  H  0.118061
  H40      1.0000 0.90715  0.31063  0.01981  Biso   1.000  H  0.117035
  H41      1.0000 0.75897  0.22230  0.95166  Biso   1.000  H  0.129164
  H42      1.0000 0.67220  0.07685  0.02048  Biso   1.000  H  0.117228
  H43      1.0000 0.57286  0.64252  0.35316  Biso   1.000  H  0.117367
  H44      1.0000 0.42202  0.55868  0.28540  Biso   1.000  H  0.128538
  H45      1.0000 0.33850  0.40796  0.35323  Biso   1.000  H  0.117528
  H46      1.0000 0.72580  0.74728  0.68744  Biso   1.000  H  0.117331
  H47      1.0000 0.78343  0.89247  0.61862  Biso   1.000  H  0.127133
  H48      1.0000 0.72277  0.98016  0.68676  Biso   1.000  H  0.117183
  H49      1.0000 0.38814  0.07453  0.02005  Biso   1.000  H  0.117390
  H50      1.0000 0.44797  0.22241  0.95183  Biso   1.000  H  0.127482
  H51      1.0000 0.38939  0.30956  0.02056  Biso   1.000  H  0.117543
  H52      1.0000 0.04896  0.64410  0.35300  Biso   1.000  H  0.117588
  H53      1.0000 0.11541  0.55988  0.28518  Biso   1.000  H  0.128626
  H54      1.0000 0.04947  0.40993  0.35313  Biso   1.000  H  0.117468
  H55      1.0000 0.23062  0.21117  0.81409  Biso   1.000  H  0.104448
  H56      1.0000 0.21728  0.18352  0.76860  Biso   1.000  H  0.102334
  H57      1.0000 0.21849  0.28308  0.85095  Biso   1.000  H  0.109249
  H58      1.0000 0.13798  0.46538  0.84257  Biso   1.000  H  0.103726
  H59      1.0000 0.09893  0.38603  0.71403  Biso   1.000  H  0.106693
  H60      1.0000 0.18124  0.20672  0.72645  Biso   1.000  H  0.106560
  H61      1.0000 0.12327  0.44250  0.79766  Biso   1.000  H  0.100705
  H62      1.0000 0.11129  0.41838  0.75851  Biso   1.000  H  0.101119
  H63      1.0000 0.56377  0.87860  0.48091  Biso   1.000  H  0.106445
  H64      1.0000 0.54928  0.84993  0.43547  Biso   1.000  H  0.106914
  H65      1.0000 0.55239  0.95122  0.51771  Biso   1.000  H  0.109127
  H66      1.0000 0.47084  0.13268  0.50926  Biso   1.000  H  0.105665
  H67      1.0000 0.42910  0.05085  0.38087  Biso   1.000  H  0.106648
  H68      1.0000 0.51203  0.87203  0.39336  Biso   1.000  H  0.108114
  H69      1.0000 0.45485  0.10863  0.46441  Biso   1.000  H  0.104087
  H70      1.0000 0.44215  0.08384  0.42531  Biso   1.000  H  0.103069
  H71      1.0000 0.74777  0.77877  0.08691  Biso   1.000  H  0.102819
  H72      1.0000 0.76081  0.80714  0.13237  Biso   1.000  H  0.098098
  H73      1.0000 0.76000  0.70606  0.05023  Biso   1.000  H  0.108089
  H74      1.0000 0.84223  0.52526  0.05916  Biso   1.000  H  0.102963
  H75      1.0000 0.88002  0.60638  0.18754  Biso   1.000  H  0.105808
  H76      1.0000 0.79681  0.78478  0.17466  Biso   1.000  H  0.106027
  H77      1.0000 0.85718  0.54937  0.10401  Biso   1.000  H  0.100501
  H78      1.0000 0.86816  0.57357  0.14312  Biso   1.000  H  0.100554
  H79      1.0000 0.09648  0.62259  0.79906  Biso   1.000  H  0.101332
  H80      1.0000 0.08382  0.63816  0.75360  Biso   1.000  H  0.102606
  H81      1.0000 0.13193  0.68067  0.84136  Biso   1.000  H  0.105921
  H82      1.0000 0.21428  0.94201  0.85441  Biso   1.000  H  0.105493
  H83      1.0000 0.17758  0.98595  0.72593  Biso   1.000  H  0.102228
  H84      1.0000 0.09630  0.72315  0.71697  Biso   1.000  H  0.108736
  H85      1.0000 0.20268  0.96322  0.80997  Biso   1.000  H  0.101173
  H86      1.0000 0.19209  0.97666  0.77082  Biso   1.000  H  0.099389
  H87      1.0000 0.29816  0.42172  0.48149  Biso   1.000  H  0.106856
  H88      1.0000 0.28238  0.43414  0.43604  Biso   1.000  H  0.106242
  H89      1.0000 0.38342  0.43489  0.51812  Biso   1.000  H  0.108954
  H90      1.0000 0.64664  0.51808  0.50913  Biso   1.000  H  0.106852
  H91      1.0000 0.60189  0.55326  0.38063  Biso   1.000  H  0.106541
  H92      1.0000 0.34036  0.47000  0.39373  Biso   1.000  H  0.108127
  H93      1.0000 0.63713  0.53247  0.46425  Biso   1.000  H  0.104551
  H94      1.0000 0.62333  0.54206  0.42507  Biso   1.000  H  0.103164
  H95      1.0000 0.74996  0.96850  0.08712  Biso   1.000  H  0.103836
  H96      1.0000 0.76291  0.95404  0.13263  Biso   1.000  H  0.099318
  H97      1.0000 0.76150  0.05260  0.05029  Biso   1.000  H  0.108790
  H98      1.0000 0.84106  0.31515  0.05882  Biso   1.000  H  0.103542
  H99      1.0000 0.87841  0.27421  0.18734  Biso   1.000  H  0.106687
  H100     1.0000 0.79797  0.01302  0.17486  Biso   1.000  H  0.106998
  H101     1.0000 0.85583  0.30681  0.10371  Biso   1.000  H  0.101793
  H102     1.0000 0.86677  0.29434  0.14285  Biso   1.000  H  0.102176
  H103     1.0000 0.54094  0.63646  0.75383  Biso   1.000  H  0.105958
  H104     1.0000 0.51278  0.62096  0.79930  Biso   1.000  H  0.105520
  H105     1.0000 0.61265  0.72161  0.71714  Biso   1.000  H  0.107937
  H106     1.0000 0.79194  0.98509  0.72597  Biso   1.000  H  0.105265
  H107     1.0000 0.71212  0.94115  0.85447  Biso   1.000  H  0.105088
  H108     1.0000 0.53463  0.67930  0.84155  Biso   1.000  H  0.107717
  H109     1.0000 0.76823  0.97580  0.77085  Biso   1.000  H  0.103260
  H110     1.0000 0.74480  0.96228  0.81003  Biso   1.000  H  0.102986
  H111     1.0000 0.10626  0.68789  0.48097  Biso   1.000  H  0.106831
  H112     1.0000 0.13371  0.70238  0.43547  Biso   1.000  H  0.106856
  H113     1.0000 0.03465  0.60366  0.51783  Biso   1.000  H  0.109451
  H114     1.0000 0.85314  0.34063  0.50942  Biso   1.000  H  0.105799
  H115     1.0000 0.93150  0.38158  0.38085  Biso   1.000  H  0.106110
  H116     1.0000 0.11062  0.64325  0.39331  Biso   1.000  H  0.108295
  H117     1.0000 0.87604  0.34896  0.46451  Biso   1.000  H  0.104270
  H118     1.0000 0.89951  0.36141  0.42534  Biso   1.000  H  0.104514
  H119     1.0000 0.17676  0.22301  0.13242  Biso   1.000  H  0.106194
  H120     1.0000 0.20476  0.23530  0.08694  Biso   1.000  H  0.105649
  H121     1.0000 0.19902  0.18718  0.17471  Biso   1.000  H  0.107421
  H122     1.0000 0.37741  0.10404  0.18775  Biso   1.000  H  0.105103
  H123     1.0000 0.45697  0.13914  0.05924  Biso   1.000  H  0.105082
  H124     1.0000 0.27662  0.22193  0.05028  Biso   1.000  H  0.107262
  H125     1.0000 0.41000  0.11532  0.14331  Biso   1.000  H  0.103120
  H126     1.0000 0.43337  0.12501  0.10413  Biso   1.000  H  0.102733
  O1       1.0000 0.88163  0.51036  0.94900  Biso   1.000  O  -0.556259
  O2       1.0000 0.01376  0.43569  0.91884  Biso   1.000  O  -0.561698
  O3       1.0000 0.88159  0.36911  0.94885  Biso   1.000  O  -0.556601
  O4       1.0000 0.01320  0.57624  0.91872  Biso   1.000  O  -0.561220
  O5       1.0000 0.09560  0.61738  0.95245  Biso   1.000  O  -0.556930
  O6       1.0000 0.96405  0.41057  0.98257  Biso   1.000  O  -0.562004
  O7       1.0000 0.09611  0.47655  0.95258  Biso   1.000  O  -0.556141
  O8       1.0000 0.96411  0.55138  0.98271  Biso   1.000  O  -0.561316
  O9       1.0000 0.54659  0.84453  0.28242  Biso   1.000  O  -0.557864
  O10      1.0000 0.67815  0.76932  0.25216  Biso   1.000  O  -0.561076
  O11      1.0000 0.54651  0.70329  0.28243  Biso   1.000  O  -0.555482
  O12      1.0000 0.67807  0.91005  0.25219  Biso   1.000  O  -0.560744
  O13      1.0000 0.76045  0.95141  0.28592  Biso   1.000  O  -0.558233
  O14      1.0000 0.62895  0.74458  0.31615  Biso   1.000  O  -0.560118
  O15      1.0000 0.76054  0.81043  0.28589  Biso   1.000  O  -0.556792
  O16      1.0000 0.62899  0.88554  0.31615  Biso   1.000  O  -0.559734
  O17      1.0000 0.34897  0.10567  0.58551  Biso   1.000  O  -0.561707
  O18      1.0000 0.21749  0.18116  0.61553  Biso   1.000  O  -0.557914
  O19      1.0000 0.34912  0.24659  0.58525  Biso   1.000  O  -0.561039
  O20      1.0000 0.21718  0.03985  0.61564  Biso   1.000  O  -0.557002
  O21      1.0000 0.29974  0.08149  0.64934  Biso   1.000  O  -0.560705
  O22      1.0000 0.43139  0.28796  0.61901  Biso   1.000  O  -0.558166
  O23      1.0000 0.29985  0.22234  0.64927  Biso   1.000  O  -0.562655
  O24      1.0000 0.43151  0.14684  0.61921  Biso   1.000  O  -0.557687
  O25      1.0000 0.54699  0.57516  0.91897  Biso   1.000  O  -0.559791
  O26      1.0000 0.47111  0.36828  0.94925  Biso   1.000  O  -0.559339
  O27      1.0000 0.40598  0.43455  0.91880  Biso   1.000  O  -0.561346
  O28      1.0000 0.61236  0.50945  0.94936  Biso   1.000  O  -0.557233
  O29      1.0000 0.57091  0.55053  0.98306  Biso   1.000  O  -0.559659
  O30      1.0000 0.36441  0.47536  0.95253  Biso   1.000  O  -0.556959
  O31      1.0000 0.43006  0.40961  0.98298  Biso   1.000  O  -0.561394
  O32      1.0000 0.50567  0.61645  0.95265  Biso   1.000  O  -0.558285
  O33      1.0000 0.23721  0.88739  0.31610  Biso   1.000  O  -0.561333
  O34      1.0000 0.03040  0.81220  0.28579  Biso   1.000  O  -0.557671
  O35      1.0000 0.09616  0.74664  0.31609  Biso   1.000  O  -0.560733
  O36      1.0000 0.17156  0.95349  0.28589  Biso   1.000  O  -0.557808
  O37      1.0000 0.21269  0.91224  0.25216  Biso   1.000  O  -0.560029
  O38      1.0000 0.13722  0.70529  0.28236  Biso   1.000  O  -0.558451
  O39      1.0000 0.07179  0.77118  0.25206  Biso   1.000  O  -0.560141
  O40      1.0000 0.27848  0.84630  0.28237  Biso   1.000  O  -0.557341
  O41      1.0000 0.69973  0.14552  0.61899  Biso   1.000  O  -0.558008
  O42      1.0000 0.90651  0.22109  0.64934  Biso   1.000  O  -0.561353
  O43      1.0000 0.84047  0.28705  0.61934  Biso   1.000  O  -0.557199
  O44      1.0000 0.76559  0.08020  0.64946  Biso   1.000  O  -0.560483
  O45      1.0000 0.80652  0.03871  0.61574  Biso   1.000  O  -0.558047
  O46      1.0000 0.88151  0.24566  0.58562  Biso   1.000  O  -0.562175
  O47      1.0000 0.94781  0.17992  0.61563  Biso   1.000  O  -0.557230
  O48      1.0000 0.74107  0.10450  0.58525  Biso   1.000  O  -0.559821
  O49      1.0000 0.43106  0.01736  0.98276  Biso   1.000  O  -0.552496
  O50      1.0000 0.50633  0.88577  0.95261  Biso   1.000  O  -0.551140
  O51      1.0000 0.57186  0.01734  0.98290  Biso   1.000  O  -0.555096
  O52      1.0000 0.36509  0.88583  0.95253  Biso   1.000  O  -0.551147
  O53      1.0000 0.40649  0.96835  0.91883  Biso   1.000  O  -0.552851
  O54      1.0000 0.61319  0.09962  0.94915  Biso   1.000  O  -0.551091
  O55      1.0000 0.54739  0.96809  0.91887  Biso   1.000  O  -0.554560
  O56      1.0000 0.47216  0.09988  0.94906  Biso   1.000  O  -0.550680
  O57      1.0000 0.17033  0.22183  0.28582  Biso   1.000  O  -0.558901
  O58      1.0000 0.09485  0.35327  0.31608  Biso   1.000  O  -0.560895
  O59      1.0000 0.02882  0.22112  0.28601  Biso   1.000  O  -0.556615
  O60      1.0000 0.23549  0.35268  0.31632  Biso   1.000  O  -0.558684
  O61      1.0000 0.27686  0.43510  0.28259  Biso   1.000  O  -0.556666
  O62      1.0000 0.07013  0.30345  0.25227  Biso   1.000  O  -0.560661
  O63      1.0000 0.13592  0.43559  0.28233  Biso   1.000  O  -0.556539
  O64      1.0000 0.21143  0.30428  0.25210  Biso   1.000  O  -0.558830
  O65      1.0000 0.76649  0.68790  0.64982  Biso   1.000  O  -0.552372
  O66      1.0000 0.84185  0.55666  0.61934  Biso   1.000  O  -0.552393
  O67      1.0000 0.90751  0.68814  0.64977  Biso   1.000  O  -0.553671
  O68      1.0000 0.70056  0.55651  0.61944  Biso   1.000  O  -0.550165
  O69      1.0000 0.74210  0.63920  0.58577  Biso   1.000  O  -0.553698
  O70      1.0000 0.94879  0.77046  0.61603  Biso   1.000  O  -0.551551
  O71      1.0000 0.88277  0.63909  0.58562  Biso   1.000  O  -0.554936
  O72      1.0000 0.80760  0.77042  0.61612  Biso   1.000  O  -0.551570
