data_image0
_cell_length_a       17.621
_cell_length_b       15.958
_cell_length_c       8.7728
_cell_angle_alpha    90
_cell_angle_beta     90
_cell_angle_gamma    90

_symmetry_space_group_name_H-M    "P 1"
_symmetry_int_tables_number       1

loop_
  _symmetry_equiv_pos_as_xyz
  'x, y, z'

loop_
  _atom_site_label
  _atom_site_occupancy
  _atom_site_fract_x
  _atom_site_fract_y
  _atom_site_fract_z
  _atom_site_thermal_displace_type
  _atom_site_B_iso_or_equiv
  _atom_site_type_symbol
  _atom_site_charge
  C1       1.0000 0.16750  0.25000  0.01740  Biso   1.000  C  0.492770
  C2       1.0000 0.33250  0.75000  0.51740  Biso   1.000  C  0.492771
  C3       1.0000 0.66750  0.25000  0.48260  Biso   1.000  C  0.492771
  C4       1.0000 0.83250  0.75000  0.98260  Biso   1.000  C  0.492771
  C5       1.0000 0.11470  0.25000  0.87790  Biso   1.000  C  0.472926
  C6       1.0000 0.38530  0.75000  0.37790  Biso   1.000  C  0.472926
  C7       1.0000 0.61470  0.25000  0.62210  Biso   1.000  C  0.472927
  C8       1.0000 0.88530  0.75000  0.12210  Biso   1.000  C  0.472926
  C9       1.0000 0.99130  0.02840  0.06720  Biso   1.000  C  0.482800
  C10      1.0000 0.50870  0.97160  0.56720  Biso   1.000  C  0.482799
  C11      1.0000 0.49130  0.47160  0.43280  Biso   1.000  C  0.482799
  C12      1.0000 0.00870  0.52840  0.93280  Biso   1.000  C  0.482799
  C13      1.0000 0.00870  0.97160  0.93280  Biso   1.000  C  0.482799
  C14      1.0000 0.49130  0.02840  0.43280  Biso   1.000  C  0.482799
  C15      1.0000 0.50870  0.52840  0.56720  Biso   1.000  C  0.482799
  C16      1.0000 0.99130  0.47160  0.06720  Biso   1.000  C  0.482799
  C17      1.0000 0.23830  0.99190  0.69610  Biso   1.000  C  0.539281
  C18      1.0000 0.26170  0.00810  0.19610  Biso   1.000  C  0.539281
  C19      1.0000 0.73830  0.50810  0.80390  Biso   1.000  C  0.539281
  C20      1.0000 0.76170  0.49190  0.30390  Biso   1.000  C  0.539281
  C21      1.0000 0.76170  0.00810  0.30390  Biso   1.000  C  0.539281
  C22      1.0000 0.73830  0.99190  0.80390  Biso   1.000  C  0.539281
  C23      1.0000 0.26170  0.49190  0.19610  Biso   1.000  C  0.539281
  C24      1.0000 0.23830  0.50810  0.69610  Biso   1.000  C  0.539280
  H1       1.0000 0.19970  0.89060  0.60440  Biso   1.000  H  0.361715
  H2       1.0000 0.30030  0.10940  0.10440  Biso   1.000  H  0.361717
  H3       1.0000 0.69970  0.60940  0.89560  Biso   1.000  H  0.361717
  H4       1.0000 0.80030  0.39060  0.39560  Biso   1.000  H  0.361715
  H5       1.0000 0.80030  0.10940  0.39560  Biso   1.000  H  0.361716
  H6       1.0000 0.69970  0.89060  0.89560  Biso   1.000  H  0.361716
  H7       1.0000 0.30030  0.39060  0.10440  Biso   1.000  H  0.361716
  H8       1.0000 0.19970  0.60940  0.60440  Biso   1.000  H  0.361716
  H9       1.0000 0.14740  0.92590  0.72130  Biso   1.000  H  0.366659
  H10      1.0000 0.35260  0.07410  0.22130  Biso   1.000  H  0.366661
  H11      1.0000 0.64740  0.57410  0.77870  Biso   1.000  H  0.366660
  H12      1.0000 0.85260  0.42590  0.27870  Biso   1.000  H  0.366659
  H13      1.0000 0.85260  0.07410  0.27870  Biso   1.000  H  0.366660
  H14      1.0000 0.64740  0.92590  0.77870  Biso   1.000  H  0.366660
  H15      1.0000 0.35260  0.42590  0.22130  Biso   1.000  H  0.366659
  H16      1.0000 0.14740  0.57410  0.72130  Biso   1.000  H  0.366660
  N1       1.0000 0.22530  0.05470  0.79270  Biso   1.000  N  -0.305308
  N2       1.0000 0.27470  0.94530  0.29270  Biso   1.000  N  -0.305308
  N3       1.0000 0.72530  0.44530  0.70730  Biso   1.000  N  -0.305308
  N4       1.0000 0.77470  0.55470  0.20730  Biso   1.000  N  -0.305308
  N5       1.0000 0.77470  0.94530  0.20730  Biso   1.000  N  -0.305308
  N6       1.0000 0.72530  0.05470  0.70730  Biso   1.000  N  -0.305308
  N7       1.0000 0.27470  0.55470  0.29270  Biso   1.000  N  -0.305308
  N8       1.0000 0.22530  0.44530  0.79270  Biso   1.000  N  -0.305307
  N9       1.0000 0.28590  0.10380  0.77600  Biso   1.000  N  -0.055711
  N10      1.0000 0.21410  0.89620  0.27600  Biso   1.000  N  -0.055712
  N11      1.0000 0.78590  0.39620  0.72400  Biso   1.000  N  -0.055712
  N12      1.0000 0.71410  0.60380  0.22400  Biso   1.000  N  -0.055712
  N13      1.0000 0.71410  0.89620  0.22400  Biso   1.000  N  -0.055711
  N14      1.0000 0.78590  0.10380  0.72400  Biso   1.000  N  -0.055712
  N15      1.0000 0.21410  0.60380  0.27600  Biso   1.000  N  -0.055712
  N16      1.0000 0.28590  0.39620  0.77600  Biso   1.000  N  -0.055711
  N17      1.0000 0.33210  0.07160  0.67810  Biso   1.000  N  -0.035247
  N18      1.0000 0.16790  0.92840  0.17810  Biso   1.000  N  -0.035249
  N19      1.0000 0.83210  0.42840  0.82190  Biso   1.000  N  -0.035249
  N20      1.0000 0.66790  0.57160  0.32190  Biso   1.000  N  -0.035248
  N21      1.0000 0.66790  0.92840  0.32190  Biso   1.000  N  -0.035247
  N22      1.0000 0.83210  0.07160  0.82190  Biso   1.000  N  -0.035248
  N23      1.0000 0.16790  0.57160  0.17810  Biso   1.000  N  -0.035248
  N24      1.0000 0.33210  0.42840  0.67810  Biso   1.000  N  -0.035248
  N25      1.0000 0.30350  0.00050  0.62370  Biso   1.000  N  -0.301653
  N26      1.0000 0.19650  0.99950  0.12370  Biso   1.000  N  -0.301652
  N27      1.0000 0.80350  0.49950  0.87630  Biso   1.000  N  -0.301653
  N28      1.0000 0.69650  0.50050  0.37630  Biso   1.000  N  -0.301652
  N29      1.0000 0.69650  0.99950  0.37630  Biso   1.000  N  -0.301653
  N30      1.0000 0.80350  0.00050  0.87630  Biso   1.000  N  -0.301653
  N31      1.0000 0.19650  0.50050  0.12370  Biso   1.000  N  -0.301653
  N32      1.0000 0.30350  0.49950  0.62370  Biso   1.000  N  -0.301652
  N33      1.0000 0.18920  0.92850  0.67090  Biso   1.000  N  -0.604538
  N34      1.0000 0.31080  0.07150  0.17090  Biso   1.000  N  -0.604545
  N35      1.0000 0.68920  0.57150  0.82910  Biso   1.000  N  -0.604543
  N36      1.0000 0.81080  0.42850  0.32910  Biso   1.000  N  -0.604539
  N37      1.0000 0.81080  0.07150  0.32910  Biso   1.000  N  -0.604540
  N38      1.0000 0.68920  0.92850  0.82910  Biso   1.000  N  -0.604543
  N39      1.0000 0.31080  0.42850  0.17090  Biso   1.000  N  -0.604540
  N40      1.0000 0.18920  0.57150  0.67090  Biso   1.000  N  -0.604541
  O1       1.0000 0.18731  0.18010  0.07010  Biso   1.000  O  -0.446445
  O2       1.0000 0.31269  0.81990  0.57010  Biso   1.000  O  -0.446445
  O3       1.0000 0.68731  0.31990  0.42990  Biso   1.000  O  -0.446445
  O4       1.0000 0.81269  0.68010  0.92990  Biso   1.000  O  -0.446445
  O5       1.0000 0.81269  0.81990  0.92990  Biso   1.000  O  -0.446445
  O6       1.0000 0.68731  0.18010  0.42990  Biso   1.000  O  -0.446445
  O7       1.0000 0.31269  0.68010  0.57010  Biso   1.000  O  -0.446445
  O8       1.0000 0.18731  0.31990  0.07010  Biso   1.000  O  -0.446445
  O9       1.0000 0.09449  0.18020  0.82780  Biso   1.000  O  -0.419682
  O10      1.0000 0.40551  0.81980  0.32780  Biso   1.000  O  -0.419682
  O11      1.0000 0.59449  0.31980  0.67220  Biso   1.000  O  -0.419682
  O12      1.0000 0.90551  0.68020  0.17220  Biso   1.000  O  -0.419681
  O13      1.0000 0.90551  0.81980  0.17220  Biso   1.000  O  -0.419681
  O14      1.0000 0.59449  0.18020  0.67220  Biso   1.000  O  -0.419682
  O15      1.0000 0.40551  0.68020  0.32780  Biso   1.000  O  -0.419682
  O16      1.0000 0.09449  0.31980  0.82780  Biso   1.000  O  -0.419682
  O17      1.0000 0.04028  0.08200  0.10250  Biso   1.000  O  -0.414799
  O18      1.0000 0.45972  0.91800  0.60250  Biso   1.000  O  -0.414798
  O19      1.0000 0.54028  0.41800  0.39750  Biso   1.000  O  -0.414797
  O20      1.0000 0.95972  0.58200  0.89750  Biso   1.000  O  -0.414798
  O21      1.0000 0.95972  0.91800  0.89750  Biso   1.000  O  -0.414798
  O22      1.0000 0.54028  0.08200  0.39750  Biso   1.000  O  -0.414797
  O23      1.0000 0.45972  0.58200  0.60250  Biso   1.000  O  -0.414798
  O24      1.0000 0.04028  0.41800  0.10250  Biso   1.000  O  -0.414798
  O25      1.0000 0.92980  0.01660  0.13550  Biso   1.000  O  -0.465470
  O26      1.0000 0.57020  0.98340  0.63550  Biso   1.000  O  -0.465469
  O27      1.0000 0.42980  0.48340  0.36450  Biso   1.000  O  -0.465469
  O28      1.0000 0.07020  0.51660  0.86450  Biso   1.000  O  -0.465469
  O29      1.0000 0.07020  0.98340  0.86450  Biso   1.000  O  -0.465469
  O30      1.0000 0.42980  0.01660  0.36450  Biso   1.000  O  -0.465469
  O31      1.0000 0.57020  0.51660  0.63550  Biso   1.000  O  -0.465469
  O32      1.0000 0.92980  0.48340  0.13550  Biso   1.000  O  -0.465469
  Zn1      1.0000 0.14204  0.07494  0.96020  Biso   1.000  Zn  0.815550
  Zn2      1.0000 0.35796  0.92506  0.46020  Biso   1.000  Zn  0.815551
  Zn3      1.0000 0.64204  0.42506  0.53980  Biso   1.000  Zn  0.815550
  Zn4      1.0000 0.85796  0.57494  0.03980  Biso   1.000  Zn  0.815551
  Zn5      1.0000 0.85796  0.92506  0.03980  Biso   1.000  Zn  0.815551
  Zn6      1.0000 0.64204  0.07494  0.53980  Biso   1.000  Zn  0.815550
  Zn7      1.0000 0.35796  0.57494  0.46020  Biso   1.000  Zn  0.815550
  Zn8      1.0000 0.14204  0.42506  0.96020  Biso   1.000  Zn  0.815550
