
##########################################################################
#               Crystallographic Information Format file
#               Produced by PyCifRW module
#
#  This is a CIF file.  CIF has been adopted by the International
#  Union of Crystallography as the standard for data archiving and
#  transmission.
#
#  For information on this file format, follow the CIF links at
#  http://www.iucr.org
##########################################################################

data_image0

_cell_length_a                          6.9941
_cell_length_b                          7.489
_cell_length_c                          11.1461
_cell_angle_alpha                       107.822
_cell_angle_beta                        106.364
_cell_angle_gamma                       95.4664
_symmetry_space_group_name_H-M          'P 1'
_symmetry_int_tables_number             1
loop_
  _symmetry_equiv_pos_as_xyz
         'x, y, z' 
loop_
  _atom_site_label
  _atom_site_occupancy
  _atom_site_fract_x
  _atom_site_fract_y
  _atom_site_fract_z
  _atom_site_thermal_displace_type
  _atom_site_B_iso_or_equiv
  _atom_site_type_symbol
  _atom_site_charge
         Al1       1.0000    0.29518   0.29518   0.59036   Biso      1.000     Al          1.633361  
         Al2       1.0000    0.70482   0.70482   0.40964   Biso      1.000     Al          1.63336   
         Al3       1.0000    0.00000   0.50000   0.50000   Biso      1.000     Al          1.686059  
         Al4       1.0000    0.50000   0.00000   0.50000   Biso      1.000     Al          1.685741  
         C1        1.0000    0.46930   0.81510   0.00000   Biso      1.000     C          -0.123336           
         C2        1.0000    0.53070   0.18490   0.00000   Biso      1.000     C          -0.123336           
         C3        1.0000    0.57540   0.15350   0.11960   Biso      1.000     C          -0.024964           
         C4        1.0000    0.67540   0.31810   0.24860   Biso      1.000     C          0.63142   
         C5        1.0000    0.57320   0.93050   0.24860   Biso      1.000     C          0.631111  
         C6        1.0000    0.42460   0.84650   0.88040   Biso      1.000     C          -0.024964           
         C7        1.0000    0.32460   0.68190   0.75140   Biso      1.000     C          0.63142   
         C8        1.0000    0.45580   0.03390   0.88040   Biso      1.000     C          -0.022602           
         C9        1.0000    0.42680   0.06950   0.75140   Biso      1.000     C          0.631111  
         C10       1.0000    0.54420   0.96610   0.11960   Biso      1.000     C          -0.022602           
         H1        1.0000    0.55190   0.31210   0.00000   Biso      1.000     H          0.130812  
         H2        1.0000    0.44810   0.68790   0.00000   Biso      1.000     H          0.130812  
         H3        1.0000    0.99400   0.31000   0.64800   Biso      1.000     H          0.470029  
         H4        1.0000    0.65400   0.33800   0.64800   Biso      1.000     H          0.467986  
         H5        1.0000    0.33600   0.50500   0.47800   Biso      1.000     H          0.43549   
         H6        1.0000    0.14200   0.97300   0.47800   Biso      1.000     H          0.435215  
         H7        1.0000    0.00600   0.69000   0.35200   Biso      1.000     H          0.470029  
         H8        1.0000    0.85800   0.02700   0.52200   Biso      1.000     H          0.435215  
         H9        1.0000    0.34600   0.66200   0.35200   Biso      1.000     H          0.467986  
         H10       1.0000    0.66400   0.49500   0.52200   Biso      1.000     H          0.43549   
         O1        1.0000    0.97230   0.68380   0.41640   Biso      1.000     O          -1.013079           
         O2        1.0000    0.44410   0.73260   0.41640   Biso      1.000     O          -1.010287           
         O3        1.0000    0.49660   0.02980   0.33060   Biso      1.000     O          -0.573873           
         O4        1.0000    0.67210   0.80100   0.26440   Biso      1.000     O          -0.602787           
         O5        1.0000    0.76450   0.95750   0.53300   Biso      1.000     O          -0.986429           
         O6        1.0000    0.76850   0.57550   0.53300   Biso      1.000     O          -0.986954           
         O7        1.0000    0.16600   0.69920   0.66940   Biso      1.000     O          -0.573767           
         O8        1.0000    0.32790   0.19900   0.73560   Biso      1.000     O          -0.602787           
         O9        1.0000    0.23150   0.42450   0.46700   Biso      1.000     O          -0.986954           
         O10       1.0000    0.55590   0.26740   0.58360   Biso      1.000     O          -1.010288           
         O11       1.0000    0.50340   0.97020   0.66940   Biso      1.000     O          -0.573873           
         O12       1.0000    0.23550   0.04250   0.46700   Biso      1.000     O          -0.986429           
         O13       1.0000    0.02770   0.31620   0.58360   Biso      1.000     O          -1.013079           
         O14       1.0000    0.59230   0.46340   0.26440   Biso      1.000     O          -0.603243           
         O15       1.0000    0.40770   0.53660   0.73560   Biso      1.000     O          -0.603243           
         O16       1.0000    0.83400   0.30080   0.33060   Biso      1.000     O          -0.573767 