data_image0
_cell_length_a       13.6204
_cell_length_b       13.6204
_cell_length_c       27.0027
_cell_angle_alpha    90
_cell_angle_beta     90
_cell_angle_gamma    90

_symmetry_space_group_name_H-M    "P 1"
_symmetry_int_tables_number       1

loop_
  _symmetry_equiv_pos_as_xyz
  'x, y, z'

loop_
  _atom_site_label
  _atom_site_occupancy
  _atom_site_fract_x
  _atom_site_fract_y
  _atom_site_fract_z
  _atom_site_thermal_displace_type
  _atom_site_B_iso_or_equiv
  _atom_site_type_symbol
  _atom_site_charge
  C1       1.0000 0.89630  0.00490  0.28660  Biso   1.000  C  -0.218725
  C2       1.0000 0.49510  0.89630  0.28660  Biso   1.000  C  -0.218725
  C3       1.0000 0.60370  0.49510  0.28660  Biso   1.000  C  -0.218725
  C4       1.0000 0.00490  0.60370  0.28660  Biso   1.000  C  -0.218725
  C5       1.0000 0.39630  0.99510  0.21340  Biso   1.000  C  -0.218725
  C6       1.0000 0.50490  0.39630  0.21340  Biso   1.000  C  -0.218725
  C7       1.0000 0.10370  0.50490  0.21340  Biso   1.000  C  -0.218725
  C8       1.0000 0.99510  0.10370  0.21340  Biso   1.000  C  -0.218725
  C9       1.0000 0.10370  0.99510  0.71340  Biso   1.000  C  -0.218725
  C10      1.0000 0.50490  0.10370  0.71340  Biso   1.000  C  -0.218725
  C11      1.0000 0.39630  0.50490  0.71340  Biso   1.000  C  -0.218725
  C12      1.0000 0.99510  0.39630  0.71340  Biso   1.000  C  -0.218725
  C13      1.0000 0.60370  0.00490  0.78660  Biso   1.000  C  -0.218725
  C14      1.0000 0.49510  0.60370  0.78660  Biso   1.000  C  -0.218725
  C15      1.0000 0.89630  0.49510  0.78660  Biso   1.000  C  -0.218725
  C16      1.0000 0.00490  0.89630  0.78660  Biso   1.000  C  -0.218725
  C17      1.0000 0.96640  0.07370  0.29940  Biso   1.000  C  -0.157116
  C18      1.0000 0.42630  0.96640  0.29940  Biso   1.000  C  -0.157116
  C19      1.0000 0.53360  0.42630  0.29940  Biso   1.000  C  -0.157116
  C20      1.0000 0.07370  0.53360  0.29940  Biso   1.000  C  -0.157116
  C21      1.0000 0.46640  0.92630  0.20060  Biso   1.000  C  -0.157116
  C22      1.0000 0.57370  0.46640  0.20060  Biso   1.000  C  -0.157116
  C23      1.0000 0.03360  0.57370  0.20060  Biso   1.000  C  -0.157116
  C24      1.0000 0.92630  0.03360  0.20060  Biso   1.000  C  -0.157116
  C25      1.0000 0.03360  0.92630  0.70060  Biso   1.000  C  -0.157116
  C26      1.0000 0.57370  0.03360  0.70060  Biso   1.000  C  -0.157116
  C27      1.0000 0.46640  0.57370  0.70060  Biso   1.000  C  -0.157116
  C28      1.0000 0.92630  0.46640  0.70060  Biso   1.000  C  -0.157116
  C29      1.0000 0.53360  0.07370  0.79940  Biso   1.000  C  -0.157116
  C30      1.0000 0.42630  0.53360  0.79940  Biso   1.000  C  -0.157116
  C31      1.0000 0.96640  0.42630  0.79940  Biso   1.000  C  -0.157116
  C32      1.0000 0.07370  0.96640  0.79940  Biso   1.000  C  -0.157116
  C33      1.0000 0.01580  0.12230  0.26170  Biso   1.000  C  0.316565
  C34      1.0000 0.37770  0.01580  0.26170  Biso   1.000  C  0.316565
  C35      1.0000 0.48420  0.37770  0.26170  Biso   1.000  C  0.316565
  C36      1.0000 0.12230  0.48420  0.26170  Biso   1.000  C  0.316565
  C37      1.0000 0.51580  0.87770  0.23830  Biso   1.000  C  0.316565
  C38      1.0000 0.62230  0.51580  0.23830  Biso   1.000  C  0.316565
  C39      1.0000 0.98420  0.62230  0.23830  Biso   1.000  C  0.316565
  C40      1.0000 0.87770  0.98420  0.23830  Biso   1.000  C  0.316565
  C41      1.0000 0.98420  0.87770  0.73830  Biso   1.000  C  0.316565
  C42      1.0000 0.62230  0.98420  0.73830  Biso   1.000  C  0.316565
  C43      1.0000 0.51580  0.62230  0.73830  Biso   1.000  C  0.316565
  C44      1.0000 0.87770  0.51580  0.73830  Biso   1.000  C  0.316565
  C45      1.0000 0.48420  0.12230  0.76170  Biso   1.000  C  0.316565
  C46      1.0000 0.37770  0.48420  0.76170  Biso   1.000  C  0.316565
  C47      1.0000 0.01580  0.37770  0.76170  Biso   1.000  C  0.316565
  C48      1.0000 0.12230  0.01580  0.76170  Biso   1.000  C  0.316565
  C49      1.0000 0.98740  0.09440  0.35270  Biso   1.000  C  0.602426
  C50      1.0000 0.40560  0.98740  0.35270  Biso   1.000  C  0.602426
  C51      1.0000 0.51260  0.40560  0.35270  Biso   1.000  C  0.602426
  C52      1.0000 0.09440  0.51260  0.35270  Biso   1.000  C  0.602426
  C53      1.0000 0.48740  0.90560  0.14730  Biso   1.000  C  0.602426
  C54      1.0000 0.59440  0.48740  0.14730  Biso   1.000  C  0.602426
  C55      1.0000 0.01260  0.59440  0.14730  Biso   1.000  C  0.602426
  C56      1.0000 0.90560  0.01260  0.14730  Biso   1.000  C  0.602426
  C57      1.0000 0.01260  0.90560  0.64730  Biso   1.000  C  0.602426
  C58      1.0000 0.59440  0.01260  0.64730  Biso   1.000  C  0.602426
  C59      1.0000 0.48740  0.59440  0.64730  Biso   1.000  C  0.602426
  C60      1.0000 0.90560  0.48740  0.64730  Biso   1.000  C  0.602426
  C61      1.0000 0.51260  0.09440  0.85270  Biso   1.000  C  0.602426
  C62      1.0000 0.40560  0.51260  0.85270  Biso   1.000  C  0.602426
  C63      1.0000 0.98740  0.40560  0.85270  Biso   1.000  C  0.602426
  C64      1.0000 0.09440  0.98740  0.85270  Biso   1.000  C  0.602426
  C65      1.0000 0.93720  0.28430  0.50140  Biso   1.000  C  0.133435
  C66      1.0000 0.21570  0.93720  0.50140  Biso   1.000  C  0.133435
  C67      1.0000 0.56280  0.21570  0.50140  Biso   1.000  C  0.133435
  C68      1.0000 0.28430  0.56280  0.50140  Biso   1.000  C  0.133435
  C69      1.0000 0.43720  0.71570  0.99860  Biso   1.000  C  0.133435
  C70      1.0000 0.78430  0.43720  0.99860  Biso   1.000  C  0.133435
  C71      1.0000 0.06280  0.78430  0.99860  Biso   1.000  C  0.133435
  C72      1.0000 0.71570  0.06280  0.99860  Biso   1.000  C  0.133435
  C73      1.0000 0.06280  0.71570  0.49860  Biso   1.000  C  0.133435
  C74      1.0000 0.78430  0.06280  0.49860  Biso   1.000  C  0.133435
  C75      1.0000 0.43720  0.78430  0.49860  Biso   1.000  C  0.133435
  C76      1.0000 0.71570  0.43720  0.49860  Biso   1.000  C  0.133435
  C77      1.0000 0.56280  0.28430  0.00140  Biso   1.000  C  0.133435
  C78      1.0000 0.21570  0.56280  0.00140  Biso   1.000  C  0.133435
  C79      1.0000 0.93720  0.21570  0.00140  Biso   1.000  C  0.133435
  C80      1.0000 0.28430  0.93720  0.00140  Biso   1.000  C  0.133435
  C81      1.0000 0.04140  0.30550  0.44630  Biso   1.000  C  0.181007
  C82      1.0000 0.19450  0.04140  0.44630  Biso   1.000  C  0.181007
  C83      1.0000 0.45860  0.19450  0.44630  Biso   1.000  C  0.181007
  C84      1.0000 0.30550  0.45860  0.44630  Biso   1.000  C  0.181007
  C85      1.0000 0.54140  0.69450  0.05370  Biso   1.000  C  0.181007
  C86      1.0000 0.80550  0.54140  0.05370  Biso   1.000  C  0.181007
  C87      1.0000 0.95860  0.80550  0.05370  Biso   1.000  C  0.181007
  C88      1.0000 0.69450  0.95860  0.05370  Biso   1.000  C  0.181007
  C89      1.0000 0.95860  0.69450  0.55370  Biso   1.000  C  0.181007
  C90      1.0000 0.80550  0.95860  0.55370  Biso   1.000  C  0.181007
  C91      1.0000 0.54140  0.80550  0.55370  Biso   1.000  C  0.181007
  C92      1.0000 0.69450  0.54140  0.55370  Biso   1.000  C  0.181007
  C93      1.0000 0.45860  0.30550  0.94630  Biso   1.000  C  0.181007
  C94      1.0000 0.19450  0.45860  0.94630  Biso   1.000  C  0.181007
  C95      1.0000 0.04140  0.19450  0.94630  Biso   1.000  C  0.181007
  C96      1.0000 0.30550  0.04140  0.94630  Biso   1.000  C  0.181007
  H1       1.0000 0.86150  0.97240  0.31130  Biso   1.000  H  0.147329
  H2       1.0000 0.52760  0.86150  0.31130  Biso   1.000  H  0.147329
  H3       1.0000 0.63850  0.52760  0.31130  Biso   1.000  H  0.147329
  H4       1.0000 0.97240  0.63850  0.31130  Biso   1.000  H  0.147329
  H5       1.0000 0.36150  0.02760  0.18870  Biso   1.000  H  0.147329
  H6       1.0000 0.47240  0.36150  0.18870  Biso   1.000  H  0.147329
  H7       1.0000 0.13850  0.47240  0.18870  Biso   1.000  H  0.147329
  H8       1.0000 0.02760  0.13850  0.18870  Biso   1.000  H  0.147329
  H9       1.0000 0.13850  0.02760  0.68870  Biso   1.000  H  0.147329
  H10      1.0000 0.47240  0.13850  0.68870  Biso   1.000  H  0.147329
  H11      1.0000 0.36150  0.47240  0.68870  Biso   1.000  H  0.147329
  H12      1.0000 0.02760  0.36150  0.68870  Biso   1.000  H  0.147329
  H13      1.0000 0.63850  0.97240  0.81130  Biso   1.000  H  0.147329
  H14      1.0000 0.52760  0.63850  0.81130  Biso   1.000  H  0.147329
  H15      1.0000 0.86150  0.52760  0.81130  Biso   1.000  H  0.147329
  H16      1.0000 0.97240  0.86150  0.81130  Biso   1.000  H  0.147329
  H17      1.0000 0.89160  0.25460  0.52220  Biso   1.000  H  0.101224
  H18      1.0000 0.24540  0.89160  0.52220  Biso   1.000  H  0.101224
  H19      1.0000 0.60840  0.24540  0.52220  Biso   1.000  H  0.101224
  H20      1.0000 0.25460  0.60840  0.52220  Biso   1.000  H  0.101224
  H21      1.0000 0.39160  0.74540  0.97780  Biso   1.000  H  0.101224
  H22      1.0000 0.75460  0.39160  0.97780  Biso   1.000  H  0.101224
  H23      1.0000 0.10840  0.75460  0.97780  Biso   1.000  H  0.101224
  H24      1.0000 0.74540  0.10840  0.97780  Biso   1.000  H  0.101224
  H25      1.0000 0.10840  0.74540  0.47780  Biso   1.000  H  0.101224
  H26      1.0000 0.75460  0.10840  0.47780  Biso   1.000  H  0.101224
  H27      1.0000 0.39160  0.75460  0.47780  Biso   1.000  H  0.101224
  H28      1.0000 0.74540  0.39160  0.47780  Biso   1.000  H  0.101224
  H29      1.0000 0.60840  0.25460  0.02220  Biso   1.000  H  0.101224
  H30      1.0000 0.24540  0.60840  0.02220  Biso   1.000  H  0.101224
  H31      1.0000 0.89160  0.24540  0.02220  Biso   1.000  H  0.101224
  H32      1.0000 0.25460  0.89160  0.02220  Biso   1.000  H  0.101224
  H33      1.0000 0.08430  0.29400  0.42010  Biso   1.000  H  0.115333
  H34      1.0000 0.20600  0.08430  0.42010  Biso   1.000  H  0.115333
  H35      1.0000 0.41570  0.20600  0.42010  Biso   1.000  H  0.115333
  H36      1.0000 0.29400  0.41570  0.42010  Biso   1.000  H  0.115333
  H37      1.0000 0.58430  0.70600  0.07990  Biso   1.000  H  0.115333
  H38      1.0000 0.79400  0.58430  0.07990  Biso   1.000  H  0.115333
  H39      1.0000 0.91570  0.79400  0.07990  Biso   1.000  H  0.115333
  H40      1.0000 0.70600  0.91570  0.07990  Biso   1.000  H  0.115333
  H41      1.0000 0.91570  0.70600  0.57990  Biso   1.000  H  0.115333
  H42      1.0000 0.79400  0.91570  0.57990  Biso   1.000  H  0.115333
  H43      1.0000 0.58430  0.79400  0.57990  Biso   1.000  H  0.115333
  H44      1.0000 0.70600  0.58430  0.57990  Biso   1.000  H  0.115333
  H45      1.0000 0.41570  0.29400  0.92010  Biso   1.000  H  0.115333
  H46      1.0000 0.20600  0.41570  0.92010  Biso   1.000  H  0.115333
  H47      1.0000 0.08430  0.20600  0.92010  Biso   1.000  H  0.115333
  H48      1.0000 0.29400  0.08430  0.92010  Biso   1.000  H  0.115333
  H49      1.0000 0.09290  0.19790  0.30170  Biso   1.000  H  0.382543
  H50      1.0000 0.30210  0.09290  0.30170  Biso   1.000  H  0.382543
  H51      1.0000 0.40710  0.30210  0.30170  Biso   1.000  H  0.382543
  H52      1.0000 0.19790  0.40710  0.30170  Biso   1.000  H  0.382543
  H53      1.0000 0.59290  0.80210  0.19830  Biso   1.000  H  0.382543
  H54      1.0000 0.69790  0.59290  0.19830  Biso   1.000  H  0.382543
  H55      1.0000 0.90710  0.69790  0.19830  Biso   1.000  H  0.382543
  H56      1.0000 0.80210  0.90710  0.19830  Biso   1.000  H  0.382543
  H57      1.0000 0.90710  0.80210  0.69830  Biso   1.000  H  0.382543
  H58      1.0000 0.69790  0.90710  0.69830  Biso   1.000  H  0.382543
  H59      1.0000 0.59290  0.69790  0.69830  Biso   1.000  H  0.382543
  H60      1.0000 0.80210  0.59290  0.69830  Biso   1.000  H  0.382543
  H61      1.0000 0.40710  0.19790  0.80170  Biso   1.000  H  0.382543
  H62      1.0000 0.30210  0.40710  0.80170  Biso   1.000  H  0.382543
  H63      1.0000 0.09290  0.30210  0.80170  Biso   1.000  H  0.382543
  H64      1.0000 0.19790  0.09290  0.80170  Biso   1.000  H  0.382543
  N1       1.0000 0.95940  0.37930  0.50300  Biso   1.000  N  -0.181853
  N2       1.0000 0.12070  0.95940  0.50300  Biso   1.000  N  -0.181853
  N3       1.0000 0.54060  0.12070  0.50300  Biso   1.000  N  -0.181853
  N4       1.0000 0.37930  0.54060  0.50300  Biso   1.000  N  -0.181853
  N5       1.0000 0.45940  0.62070  0.99700  Biso   1.000  N  -0.181853
  N6       1.0000 0.87930  0.45940  0.99700  Biso   1.000  N  -0.181853
  N7       1.0000 0.04060  0.87930  0.99700  Biso   1.000  N  -0.181853
  N8       1.0000 0.62070  0.04060  0.99700  Biso   1.000  N  -0.181853
  N9       1.0000 0.04060  0.62070  0.49700  Biso   1.000  N  -0.181853
  N10      1.0000 0.87930  0.04060  0.49700  Biso   1.000  N  -0.181853
  N11      1.0000 0.45940  0.87930  0.49700  Biso   1.000  N  -0.181853
  N12      1.0000 0.62070  0.45940  0.49700  Biso   1.000  N  -0.181853
  N13      1.0000 0.54060  0.37930  0.00300  Biso   1.000  N  -0.181853
  N14      1.0000 0.12070  0.54060  0.00300  Biso   1.000  N  -0.181853
  N15      1.0000 0.95940  0.12070  0.00300  Biso   1.000  N  -0.181853
  N16      1.0000 0.37930  0.95940  0.00300  Biso   1.000  N  -0.181853
  N17      1.0000 0.98730  0.23630  0.46670  Biso   1.000  N  -0.287120
  N18      1.0000 0.26370  0.98730  0.46670  Biso   1.000  N  -0.287120
  N19      1.0000 0.51270  0.26370  0.46670  Biso   1.000  N  -0.287120
  N20      1.0000 0.23630  0.51270  0.46670  Biso   1.000  N  -0.287120
  N21      1.0000 0.48730  0.76370  0.03330  Biso   1.000  N  -0.287121
  N22      1.0000 0.73630  0.48730  0.03330  Biso   1.000  N  -0.287120
  N23      1.0000 0.01270  0.73630  0.03330  Biso   1.000  N  -0.287120
  N24      1.0000 0.76370  0.01270  0.03330  Biso   1.000  N  -0.287120
  N25      1.0000 0.01270  0.76370  0.53330  Biso   1.000  N  -0.287120
  N26      1.0000 0.73630  0.01270  0.53330  Biso   1.000  N  -0.287120
  N27      1.0000 0.48730  0.73630  0.53330  Biso   1.000  N  -0.287120
  N28      1.0000 0.76370  0.48730  0.53330  Biso   1.000  N  -0.287120
  N29      1.0000 0.51270  0.23630  0.96670  Biso   1.000  N  -0.287120
  N30      1.0000 0.26370  0.51270  0.96670  Biso   1.000  N  -0.287120
  N31      1.0000 0.98730  0.26370  0.96670  Biso   1.000  N  -0.287120
  N32      1.0000 0.23630  0.98730  0.96670  Biso   1.000  N  -0.287120
  N33      1.0000 0.02900  0.39230  0.46650  Biso   1.000  N  -0.176151
  N34      1.0000 0.10770  0.02900  0.46650  Biso   1.000  N  -0.176151
  N35      1.0000 0.47100  0.10770  0.46650  Biso   1.000  N  -0.176151
  N36      1.0000 0.39230  0.47100  0.46650  Biso   1.000  N  -0.176151
  N37      1.0000 0.52900  0.60770  0.03350  Biso   1.000  N  -0.176151
  N38      1.0000 0.89230  0.52900  0.03350  Biso   1.000  N  -0.176151
  N39      1.0000 0.97100  0.89230  0.03350  Biso   1.000  N  -0.176151
  N40      1.0000 0.60770  0.97100  0.03350  Biso   1.000  N  -0.176151
  N41      1.0000 0.97100  0.60770  0.53350  Biso   1.000  N  -0.176151
  N42      1.0000 0.89230  0.97100  0.53350  Biso   1.000  N  -0.176151
  N43      1.0000 0.52900  0.89230  0.53350  Biso   1.000  N  -0.176151
  N44      1.0000 0.60770  0.52900  0.53350  Biso   1.000  N  -0.176151
  N45      1.0000 0.47100  0.39230  0.96650  Biso   1.000  N  -0.176151
  N46      1.0000 0.10770  0.47100  0.96650  Biso   1.000  N  -0.176151
  N47      1.0000 0.02900  0.10770  0.96650  Biso   1.000  N  -0.176151
  N48      1.0000 0.39230  0.02900  0.96650  Biso   1.000  N  -0.176151
  O1       1.0000 0.05780  0.14820  0.36450  Biso   1.000  O  -0.588910
  O2       1.0000 0.35180  0.05780  0.36450  Biso   1.000  O  -0.588910
  O3       1.0000 0.44220  0.35180  0.36450  Biso   1.000  O  -0.588910
  O4       1.0000 0.14820  0.44220  0.36450  Biso   1.000  O  -0.588910
  O5       1.0000 0.55780  0.85180  0.13550  Biso   1.000  O  -0.588910
  O6       1.0000 0.64820  0.55780  0.13550  Biso   1.000  O  -0.588910
  O7       1.0000 0.94220  0.64820  0.13550  Biso   1.000  O  -0.588910
  O8       1.0000 0.85180  0.94220  0.13550  Biso   1.000  O  -0.588910
  O9       1.0000 0.94220  0.85180  0.63550  Biso   1.000  O  -0.588910
  O10      1.0000 0.64820  0.94220  0.63550  Biso   1.000  O  -0.588910
  O11      1.0000 0.55780  0.64820  0.63550  Biso   1.000  O  -0.588910
  O12      1.0000 0.85180  0.55780  0.63550  Biso   1.000  O  -0.588910
  O13      1.0000 0.44220  0.14820  0.86450  Biso   1.000  O  -0.588910
  O14      1.0000 0.35180  0.44220  0.86450  Biso   1.000  O  -0.588910
  O15      1.0000 0.05780  0.35180  0.86450  Biso   1.000  O  -0.588910
  O16      1.0000 0.14820  0.05780  0.86450  Biso   1.000  O  -0.588910
  O17      1.0000 0.93300  0.05610  0.38510  Biso   1.000  O  -0.549665
  O18      1.0000 0.44390  0.93300  0.38510  Biso   1.000  O  -0.549665
  O19      1.0000 0.56700  0.44390  0.38510  Biso   1.000  O  -0.549665
  O20      1.0000 0.05610  0.56700  0.38510  Biso   1.000  O  -0.549665
  O21      1.0000 0.43300  0.94390  0.11490  Biso   1.000  O  -0.549665
  O22      1.0000 0.55610  0.43300  0.11490  Biso   1.000  O  -0.549665
  O23      1.0000 0.06700  0.55610  0.11490  Biso   1.000  O  -0.549665
  O24      1.0000 0.94390  0.06700  0.11490  Biso   1.000  O  -0.549665
  O25      1.0000 0.06700  0.94390  0.61490  Biso   1.000  O  -0.549665
  O26      1.0000 0.55610  0.06700  0.61490  Biso   1.000  O  -0.549665
  O27      1.0000 0.43300  0.55610  0.61490  Biso   1.000  O  -0.549665
  O28      1.0000 0.94390  0.43300  0.61490  Biso   1.000  O  -0.549665
  O29      1.0000 0.56700  0.05610  0.88510  Biso   1.000  O  -0.549665
  O30      1.0000 0.44390  0.56700  0.88510  Biso   1.000  O  -0.549665
  O31      1.0000 0.93300  0.44390  0.88510  Biso   1.000  O  -0.549665
  O32      1.0000 0.05610  0.93300  0.88510  Biso   1.000  O  -0.549665
  O33      1.0000 0.08220  0.19320  0.27070  Biso   1.000  O  -0.489813
  O34      1.0000 0.30680  0.08220  0.27070  Biso   1.000  O  -0.489813
  O35      1.0000 0.41780  0.30680  0.27070  Biso   1.000  O  -0.489813
  O36      1.0000 0.19320  0.41780  0.27070  Biso   1.000  O  -0.489813
  O37      1.0000 0.58220  0.80680  0.22930  Biso   1.000  O  -0.489813
  O38      1.0000 0.69320  0.58220  0.22930  Biso   1.000  O  -0.489813
  O39      1.0000 0.91780  0.69320  0.22930  Biso   1.000  O  -0.489813
  O40      1.0000 0.80680  0.91780  0.22930  Biso   1.000  O  -0.489813
  O41      1.0000 0.91780  0.80680  0.72930  Biso   1.000  O  -0.489813
  O42      1.0000 0.69320  0.91780  0.72930  Biso   1.000  O  -0.489813
  O43      1.0000 0.58220  0.69320  0.72930  Biso   1.000  O  -0.489813
  O44      1.0000 0.80680  0.58220  0.72930  Biso   1.000  O  -0.489813
  O45      1.0000 0.41780  0.19320  0.77070  Biso   1.000  O  -0.489813
  O46      1.0000 0.30680  0.41780  0.77070  Biso   1.000  O  -0.489813
  O47      1.0000 0.08220  0.30680  0.77070  Biso   1.000  O  -0.489813
  O48      1.0000 0.19320  0.08220  0.77070  Biso   1.000  O  -0.489813
  Zn1      1.0000 0.98034  0.09401  0.44974  Biso   1.000  Zn  0.669490
  Zn2      1.0000 0.40599  0.98034  0.44974  Biso   1.000  Zn  0.669490
  Zn3      1.0000 0.51966  0.40599  0.44974  Biso   1.000  Zn  0.669490
  Zn4      1.0000 0.09401  0.51966  0.44974  Biso   1.000  Zn  0.669490
  Zn5      1.0000 0.48034  0.90599  0.05026  Biso   1.000  Zn  0.669490
  Zn6      1.0000 0.59401  0.48034  0.05026  Biso   1.000  Zn  0.669490
  Zn7      1.0000 0.01966  0.59401  0.05026  Biso   1.000  Zn  0.669490
  Zn8      1.0000 0.90599  0.01966  0.05026  Biso   1.000  Zn  0.669490
  Zn9      1.0000 0.01966  0.90599  0.55026  Biso   1.000  Zn  0.669490
  Zn10     1.0000 0.59401  0.01966  0.55026  Biso   1.000  Zn  0.669490
  Zn11     1.0000 0.48034  0.59401  0.55026  Biso   1.000  Zn  0.669490
  Zn12     1.0000 0.90599  0.48034  0.55026  Biso   1.000  Zn  0.669490
  Zn13     1.0000 0.51966  0.09401  0.94974  Biso   1.000  Zn  0.669490
  Zn14     1.0000 0.40599  0.51966  0.94974  Biso   1.000  Zn  0.669490
  Zn15     1.0000 0.98034  0.40599  0.94974  Biso   1.000  Zn  0.669490
  Zn16     1.0000 0.09401  0.98034  0.94974  Biso   1.000  Zn  0.669490
