data_image0
_cell_length_a       27.0505
_cell_length_b       13.5009
_cell_length_c       13.5576
_cell_angle_alpha    90
_cell_angle_beta     90
_cell_angle_gamma    90

_symmetry_space_group_name_H-M    "P 1"
_symmetry_int_tables_number       1

loop_
  _symmetry_equiv_pos_as_xyz
  'x, y, z'

loop_
  _atom_site_label
  _atom_site_occupancy
  _atom_site_fract_x
  _atom_site_fract_y
  _atom_site_fract_z
  _atom_site_thermal_displace_type
  _atom_site_B_iso_or_equiv
  _atom_site_type_symbol
  _atom_site_charge
  C1       1.0000 0.11260  0.98640  0.07130  Biso   1.000  C  0.666795
  C2       1.0000 0.88740  0.01360  0.57130  Biso   1.000  C  0.666795
  C3       1.0000 0.38740  0.48640  0.57130  Biso   1.000  C  0.666795
  C4       1.0000 0.61260  0.51360  0.07130  Biso   1.000  C  0.666795
  C5       1.0000 0.93680  0.10240  0.07600  Biso   1.000  C  -0.279224
  C6       1.0000 0.06320  0.89760  0.57600  Biso   1.000  C  -0.279224
  C7       1.0000 0.56320  0.60240  0.57600  Biso   1.000  C  -0.279224
  C8       1.0000 0.43680  0.39760  0.07600  Biso   1.000  C  -0.279224
  C9       1.0000 0.05790  0.98470  0.09700  Biso   1.000  C  -0.220532
  C10      1.0000 0.94210  0.01530  0.59700  Biso   1.000  C  -0.220532
  C11      1.0000 0.44210  0.48470  0.59700  Biso   1.000  C  -0.220532
  C12      1.0000 0.55790  0.51530  0.09700  Biso   1.000  C  -0.220532
  C13      1.0000 0.45490  0.85130  0.02970  Biso   1.000  C  -0.239687
  C14      1.0000 0.54510  0.14870  0.52970  Biso   1.000  C  -0.239687
  C15      1.0000 0.04510  0.35130  0.52970  Biso   1.000  C  -0.239687
  C16      1.0000 0.95490  0.64870  0.02970  Biso   1.000  C  -0.239687
  C17      1.0000 0.89080  0.08960  0.12030  Biso   1.000  C  0.655027
  C18      1.0000 0.10920  0.91040  0.62030  Biso   1.000  C  0.655027
  C19      1.0000 0.60920  0.58960  0.62030  Biso   1.000  C  0.655027
  C20      1.0000 0.39080  0.41040  0.12030  Biso   1.000  C  0.655027
  C21      1.0000 0.74750  0.01690  0.75260  Biso   1.000  C  0.150330
  C22      1.0000 0.25250  0.98310  0.25260  Biso   1.000  C  0.150330
  C23      1.0000 0.75250  0.51690  0.25260  Biso   1.000  C  0.150330
  C24      1.0000 0.24750  0.48310  0.75260  Biso   1.000  C  0.150330
  C25      1.0000 0.40110  0.82210  0.03640  Biso   1.000  C  0.687382
  C26      1.0000 0.59890  0.17790  0.53640  Biso   1.000  C  0.687382
  C27      1.0000 0.09890  0.32210  0.53640  Biso   1.000  C  0.687382
  C28      1.0000 0.90110  0.67790  0.03640  Biso   1.000  C  0.687382
  C29      1.0000 0.74630  0.86130  0.97240  Biso   1.000  C  0.169875
  C30      1.0000 0.25370  0.13870  0.47240  Biso   1.000  C  0.169875
  C31      1.0000 0.75370  0.36130  0.47240  Biso   1.000  C  0.169875
  C32      1.0000 0.24630  0.63870  0.97240  Biso   1.000  C  0.169875
  C33      1.0000 0.59590  0.05730  0.93930  Biso   1.000  C  0.597692
  C34      1.0000 0.40410  0.94270  0.43930  Biso   1.000  C  0.597692
  C35      1.0000 0.90410  0.55730  0.43930  Biso   1.000  C  0.597692
  C36      1.0000 0.09590  0.44270  0.93930  Biso   1.000  C  0.597692
  C37      1.0000 0.80100  0.88850  0.07840  Biso   1.000  C  0.174030
  C38      1.0000 0.19900  0.11150  0.57840  Biso   1.000  C  0.174030
  C39      1.0000 0.69900  0.38850  0.57840  Biso   1.000  C  0.174030
  C40      1.0000 0.30100  0.61150  0.07840  Biso   1.000  C  0.174030
  C41      1.0000 0.69080  0.27980  0.99800  Biso   1.000  C  0.154510
  C42      1.0000 0.30920  0.72020  0.49800  Biso   1.000  C  0.154510
  C43      1.0000 0.80920  0.77980  0.49800  Biso   1.000  C  0.154510
  C44      1.0000 0.19080  0.22020  0.99800  Biso   1.000  C  0.154510
  C45      1.0000 0.97440  0.03690  0.09950  Biso   1.000  C  -0.019552
  C46      1.0000 0.02560  0.96310  0.59950  Biso   1.000  C  -0.019552
  C47      1.0000 0.52560  0.53690  0.59950  Biso   1.000  C  -0.019552
  C48      1.0000 0.47440  0.46310  0.09950  Biso   1.000  C  -0.019552
  C49      1.0000 0.74790  0.29590  0.09320  Biso   1.000  C  0.097397
  C50      1.0000 0.25210  0.70410  0.59320  Biso   1.000  C  0.097397
  C51      1.0000 0.75210  0.79590  0.59320  Biso   1.000  C  0.097397
  C52      1.0000 0.24790  0.20410  0.09320  Biso   1.000  C  0.097396
  C53      1.0000 0.47380  0.91970  0.98560  Biso   1.000  C  -0.033876
  C54      1.0000 0.52620  0.08030  0.48560  Biso   1.000  C  -0.033876
  C55      1.0000 0.02620  0.41970  0.48560  Biso   1.000  C  -0.033876
  C56      1.0000 0.97380  0.58030  0.98560  Biso   1.000  C  -0.033876
  C57      1.0000 0.54100  0.03370  0.93580  Biso   1.000  C  -0.248007
  C58      1.0000 0.45900  0.96630  0.43580  Biso   1.000  C  -0.248007
  C59      1.0000 0.95900  0.53370  0.43580  Biso   1.000  C  -0.248007
  C60      1.0000 0.04100  0.46630  0.93580  Biso   1.000  C  -0.248007
  C61      1.0000 0.02570  0.03780  0.07000  Biso   1.000  C  -0.036973
  C62      1.0000 0.97430  0.96220  0.57000  Biso   1.000  C  -0.036973
  C63      1.0000 0.47430  0.53780  0.57000  Biso   1.000  C  -0.036973
  C64      1.0000 0.52570  0.46220  0.07000  Biso   1.000  C  -0.036972
  C65      1.0000 0.52490  0.95360  0.98680  Biso   1.000  C  -0.037076
  C66      1.0000 0.47510  0.04640  0.48680  Biso   1.000  C  -0.037076
  C67      1.0000 0.97510  0.45360  0.48680  Biso   1.000  C  -0.037076
  C68      1.0000 0.02490  0.54640  0.98680  Biso   1.000  C  -0.037076
  C69      1.0000 0.69200  0.12570  0.73280  Biso   1.000  C  0.187429
  C70      1.0000 0.30800  0.87430  0.23280  Biso   1.000  C  0.187429
  C71      1.0000 0.80800  0.62570  0.23280  Biso   1.000  C  0.187429
  C72      1.0000 0.19200  0.37430  0.73280  Biso   1.000  C  0.187429
  C73      1.0000 0.75850  0.63980  0.81830  Biso   1.000  C  0.116559
  C74      1.0000 0.24150  0.36020  0.31830  Biso   1.000  C  0.116559
  C75      1.0000 0.74150  0.13980  0.31830  Biso   1.000  C  0.116559
  C76      1.0000 0.25850  0.86020  0.81830  Biso   1.000  C  0.116559
  C77      1.0000 0.70050  0.54260  0.84010  Biso   1.000  C  0.183750
  C78      1.0000 0.29950  0.45740  0.34010  Biso   1.000  C  0.183750
  C79      1.0000 0.79950  0.04260  0.34010  Biso   1.000  C  0.183750
  C80      1.0000 0.20050  0.95740  0.84010  Biso   1.000  C  0.183750
  H1       1.0000 0.94210  0.15390  0.03170  Biso   1.000  H  0.150109
  H2       1.0000 0.05790  0.84610  0.53170  Biso   1.000  H  0.150109
  H3       1.0000 0.55790  0.65390  0.53170  Biso   1.000  H  0.150109
  H4       1.0000 0.44210  0.34610  0.03170  Biso   1.000  H  0.150109
  H5       1.0000 0.04840  0.93500  0.14090  Biso   1.000  H  0.112320
  H6       1.0000 0.95160  0.06500  0.64090  Biso   1.000  H  0.112320
  H7       1.0000 0.45160  0.43500  0.64090  Biso   1.000  H  0.112320
  H8       1.0000 0.54840  0.56500  0.14090  Biso   1.000  H  0.112320
  H9       1.0000 0.47670  0.81100  0.06440  Biso   1.000  H  0.123193
  H10      1.0000 0.52330  0.18900  0.56440  Biso   1.000  H  0.123193
  H11      1.0000 0.02330  0.31100  0.56440  Biso   1.000  H  0.123193
  H12      1.0000 0.97670  0.68900  0.06440  Biso   1.000  H  0.123193
  H13      1.0000 0.76840  0.97110  0.78220  Biso   1.000  H  0.102499
  H14      1.0000 0.23160  0.02890  0.28220  Biso   1.000  H  0.102499
  H15      1.0000 0.73160  0.47110  0.28220  Biso   1.000  H  0.102499
  H16      1.0000 0.26840  0.52890  0.78220  Biso   1.000  H  0.102499
  H17      1.0000 0.72680  0.82980  0.92530  Biso   1.000  H  0.096423
  H18      1.0000 0.27320  0.17020  0.42530  Biso   1.000  H  0.096423
  H19      1.0000 0.77320  0.32980  0.42530  Biso   1.000  H  0.096423
  H20      1.0000 0.22680  0.67020  0.92530  Biso   1.000  H  0.096423
  H21      1.0000 0.82690  0.87810  0.12230  Biso   1.000  H  0.124765
  H22      1.0000 0.17310  0.12190  0.62230  Biso   1.000  H  0.124765
  H23      1.0000 0.67310  0.37810  0.62230  Biso   1.000  H  0.124765
  H24      1.0000 0.32690  0.62190  0.12230  Biso   1.000  H  0.124765
  H25      1.0000 0.66380  0.29170  0.95730  Biso   1.000  H  0.118867
  H26      1.0000 0.33620  0.70830  0.45730  Biso   1.000  H  0.118867
  H27      1.0000 0.83620  0.79170  0.45730  Biso   1.000  H  0.118867
  H28      1.0000 0.16380  0.20830  0.95730  Biso   1.000  H  0.118867
  H29      1.0000 0.96520  0.98450  0.14010  Biso   1.000  H  0.100191
  H30      1.0000 0.03480  0.01550  0.64010  Biso   1.000  H  0.100191
  H31      1.0000 0.53480  0.48450  0.64010  Biso   1.000  H  0.100191
  H32      1.0000 0.46520  0.51550  0.14010  Biso   1.000  H  0.100191
  H33      1.0000 0.77110  0.32510  0.13450  Biso   1.000  H  0.088862
  H34      1.0000 0.22890  0.67490  0.63450  Biso   1.000  H  0.088862
  H35      1.0000 0.72890  0.82510  0.63450  Biso   1.000  H  0.088862
  H36      1.0000 0.27110  0.17490  0.13450  Biso   1.000  H  0.088862
  H37      1.0000 0.45260  0.95570  0.94520  Biso   1.000  H  0.101503
  H38      1.0000 0.54740  0.04430  0.44520  Biso   1.000  H  0.101503
  H39      1.0000 0.04740  0.45570  0.44520  Biso   1.000  H  0.101503
  H40      1.0000 0.95260  0.54430  0.94520  Biso   1.000  H  0.101503
  H41      1.0000 0.51920  0.07290  0.89980  Biso   1.000  H  0.153198
  H42      1.0000 0.48080  0.92710  0.39980  Biso   1.000  H  0.153198
  H43      1.0000 0.98080  0.57290  0.39980  Biso   1.000  H  0.153198
  H44      1.0000 0.01920  0.42710  0.89980  Biso   1.000  H  0.153198
  H45      1.0000 0.03460  0.08590  0.02450  Biso   1.000  H  0.108605
  H46      1.0000 0.96540  0.91410  0.52450  Biso   1.000  H  0.108605
  H47      1.0000 0.46540  0.58590  0.52450  Biso   1.000  H  0.108605
  H48      1.0000 0.53460  0.41410  0.02450  Biso   1.000  H  0.108605
  H49      1.0000 0.54760  0.91860  0.02460  Biso   1.000  H  0.111208
  H50      1.0000 0.45240  0.08140  0.52460  Biso   1.000  H  0.111208
  H51      1.0000 0.95240  0.41860  0.52460  Biso   1.000  H  0.111208
  H52      1.0000 0.04760  0.58140  0.02460  Biso   1.000  H  0.111208
  H53      1.0000 0.66640  0.16980  0.74500  Biso   1.000  H  0.124574
  H54      1.0000 0.33360  0.83020  0.24500  Biso   1.000  H  0.124574
  H55      1.0000 0.83360  0.66980  0.24500  Biso   1.000  H  0.124574
  H56      1.0000 0.16640  0.33020  0.74500  Biso   1.000  H  0.124574
  H57      1.0000 0.78080  0.68140  0.78650  Biso   1.000  H  0.099485
  H58      1.0000 0.21920  0.31860  0.28650  Biso   1.000  H  0.099485
  H59      1.0000 0.71920  0.18140  0.28650  Biso   1.000  H  0.099485
  H60      1.0000 0.28080  0.81860  0.78650  Biso   1.000  H  0.099485
  H61      1.0000 0.67400  0.49980  0.82970  Biso   1.000  H  0.118617
  H62      1.0000 0.32600  0.50020  0.32970  Biso   1.000  H  0.118617
  H63      1.0000 0.82600  0.99980  0.32970  Biso   1.000  H  0.118617
  H64      1.0000 0.17400  0.00020  0.82970  Biso   1.000  H  0.118617
  N1       1.0000 0.72100  0.59280  0.77200  Biso   1.000  N  -0.278846
  N2       1.0000 0.27900  0.40720  0.27200  Biso   1.000  N  -0.278846
  N3       1.0000 0.77900  0.09280  0.27200  Biso   1.000  N  -0.278846
  N4       1.0000 0.22100  0.90720  0.77200  Biso   1.000  N  -0.278846
  N5       1.0000 0.78080  0.81790  0.01990  Biso   1.000  N  -0.317425
  N6       1.0000 0.21920  0.18210  0.51990  Biso   1.000  N  -0.317425
  N7       1.0000 0.71920  0.31790  0.51990  Biso   1.000  N  -0.317425
  N8       1.0000 0.28080  0.68210  0.01990  Biso   1.000  N  -0.317425
  N9       1.0000 0.71130  0.06730  0.80310  Biso   1.000  N  -0.298999
  N10      1.0000 0.28870  0.93270  0.30310  Biso   1.000  N  -0.298999
  N11      1.0000 0.78870  0.56730  0.30310  Biso   1.000  N  -0.298999
  N12      1.0000 0.21130  0.43270  0.80310  Biso   1.000  N  -0.298999
  N13      1.0000 0.74960  0.03970  0.65920  Biso   1.000  N  -0.192940
  N14      1.0000 0.25040  0.96030  0.15920  Biso   1.000  N  -0.192940
  N15      1.0000 0.75040  0.53970  0.15920  Biso   1.000  N  -0.192940
  N16      1.0000 0.24960  0.46030  0.65920  Biso   1.000  N  -0.192940
  N17      1.0000 0.74110  0.95410  0.99650  Biso   1.000  N  -0.203452
  N18      1.0000 0.25890  0.04590  0.49650  Biso   1.000  N  -0.203452
  N19      1.0000 0.75890  0.45410  0.49650  Biso   1.000  N  -0.203452
  N20      1.0000 0.24110  0.54590  0.99650  Biso   1.000  N  -0.203452
  N21      1.0000 0.75990  0.61990  0.91360  Biso   1.000  N  -0.158792
  N22      1.0000 0.24010  0.38010  0.41360  Biso   1.000  N  -0.158792
  N23      1.0000 0.74010  0.11990  0.41360  Biso   1.000  N  -0.158792
  N24      1.0000 0.25990  0.88010  0.91360  Biso   1.000  N  -0.158792
  N25      1.0000 0.71100  0.18820  0.01270  Biso   1.000  N  -0.178565
  N26      1.0000 0.28900  0.81180  0.51270  Biso   1.000  N  -0.178565
  N27      1.0000 0.78900  0.68820  0.51270  Biso   1.000  N  -0.178565
  N28      1.0000 0.21100  0.31180  0.01270  Biso   1.000  N  -0.178565
  N29      1.0000 0.71280  0.11540  0.64350  Biso   1.000  N  -0.194903
  N30      1.0000 0.28720  0.88460  0.14350  Biso   1.000  N  -0.194903
  N31      1.0000 0.78720  0.61540  0.14350  Biso   1.000  N  -0.194903
  N32      1.0000 0.21280  0.38460  0.64350  Biso   1.000  N  -0.194903
  N33      1.0000 0.72130  0.55820  0.92870  Biso   1.000  N  -0.204531
  N34      1.0000 0.27870  0.44180  0.42870  Biso   1.000  N  -0.204531
  N35      1.0000 0.77870  0.05820  0.42870  Biso   1.000  N  -0.204531
  N36      1.0000 0.22130  0.94180  0.92870  Biso   1.000  N  -0.204531
  N37      1.0000 0.71330  0.34730  0.04680  Biso   1.000  N  -0.260785
  N38      1.0000 0.28670  0.65270  0.54680  Biso   1.000  N  -0.260785
  N39      1.0000 0.78670  0.84730  0.54680  Biso   1.000  N  -0.260785
  N40      1.0000 0.21330  0.15270  0.04680  Biso   1.000  N  -0.260785
  N41      1.0000 0.74650  0.19820  0.07570  Biso   1.000  N  -0.145305
  N42      1.0000 0.25350  0.80180  0.57570  Biso   1.000  N  -0.145305
  N43      1.0000 0.75350  0.69820  0.57570  Biso   1.000  N  -0.145305
  N44      1.0000 0.24650  0.30180  0.07570  Biso   1.000  N  -0.145305
  N45      1.0000 0.77910  0.97260  0.06450  Biso   1.000  N  -0.171180
  N46      1.0000 0.22090  0.02740  0.56450  Biso   1.000  N  -0.171180
  N47      1.0000 0.72090  0.47260  0.56450  Biso   1.000  N  -0.171180
  N48      1.0000 0.27910  0.52740  0.06450  Biso   1.000  N  -0.171180
  O1       1.0000 0.14200  0.95320  0.11820  Biso   1.000  O  -0.502588
  O2       1.0000 0.85800  0.04680  0.61820  Biso   1.000  O  -0.502588
  O3       1.0000 0.35800  0.45320  0.61820  Biso   1.000  O  -0.502588
  O4       1.0000 0.64200  0.54680  0.11820  Biso   1.000  O  -0.502588
  O5       1.0000 0.12070  0.03640  0.99240  Biso   1.000  O  -0.644268
  O6       1.0000 0.87930  0.96360  0.49240  Biso   1.000  O  -0.644268
  O7       1.0000 0.37930  0.53640  0.49240  Biso   1.000  O  -0.644268
  O8       1.0000 0.62070  0.46360  0.99240  Biso   1.000  O  -0.644268
  O9       1.0000 0.37340  0.86270  0.97630  Biso   1.000  O  -0.605620
  O10      1.0000 0.62660  0.13730  0.47630  Biso   1.000  O  -0.605620
  O11      1.0000 0.12660  0.36270  0.47630  Biso   1.000  O  -0.605620
  O12      1.0000 0.87340  0.63730  0.97630  Biso   1.000  O  -0.605620
  O13      1.0000 0.62740  0.99760  0.97470  Biso   1.000  O  -0.546437
  O14      1.0000 0.37260  0.00240  0.47470  Biso   1.000  O  -0.546437
  O15      1.0000 0.87260  0.49760  0.47470  Biso   1.000  O  -0.546436
  O16      1.0000 0.12740  0.50240  0.97470  Biso   1.000  O  -0.546437
  O17      1.0000 0.60970  0.13660  0.89120  Biso   1.000  O  -0.596765
  O18      1.0000 0.39030  0.86340  0.39120  Biso   1.000  O  -0.596765
  O19      1.0000 0.89030  0.63660  0.39120  Biso   1.000  O  -0.596765
  O20      1.0000 0.10970  0.36340  0.89120  Biso   1.000  O  -0.596765
  O21      1.0000 0.87660  0.03030  0.17260  Biso   1.000  O  -0.521959
  O22      1.0000 0.12340  0.96970  0.67260  Biso   1.000  O  -0.521959
  O23      1.0000 0.62340  0.53030  0.67260  Biso   1.000  O  -0.521959
  O24      1.0000 0.37660  0.46970  0.17260  Biso   1.000  O  -0.521959
  O25      1.0000 0.85760  0.15220  0.07870  Biso   1.000  O  -0.640856
  O26      1.0000 0.14240  0.84780  0.57870  Biso   1.000  O  -0.640856
  O27      1.0000 0.64240  0.65220  0.57870  Biso   1.000  O  -0.640856
  O28      1.0000 0.35760  0.34780  0.07870  Biso   1.000  O  -0.640856
  O29      1.0000 0.38520  0.76810  0.09330  Biso   1.000  O  -0.571217
  O30      1.0000 0.61480  0.23190  0.59330  Biso   1.000  O  -0.571217
  O31      1.0000 0.11480  0.26810  0.59330  Biso   1.000  O  -0.571217
  O32      1.0000 0.88520  0.73190  0.09330  Biso   1.000  O  -0.571217
  Zn1      1.0000 0.79815  0.99128  0.55757  Biso   1.000  Zn  0.676341
  Zn2      1.0000 0.20185  0.00872  0.05757  Biso   1.000  Zn  0.676341
  Zn3      1.0000 0.70185  0.49128  0.05757  Biso   1.000  Zn  0.676341
  Zn4      1.0000 0.29815  0.50872  0.55757  Biso   1.000  Zn  0.676341
  Zn5      1.0000 0.79610  0.10036  0.12909  Biso   1.000  Zn  0.654486
  Zn6      1.0000 0.20390  0.89964  0.62909  Biso   1.000  Zn  0.654485
  Zn7      1.0000 0.70390  0.60036  0.62909  Biso   1.000  Zn  0.654485
  Zn8      1.0000 0.29610  0.39964  0.12909  Biso   1.000  Zn  0.654485
  Zn9      1.0000 0.80595  0.67419  0.01595  Biso   1.000  Zn  0.676180
  Zn10     1.0000 0.19405  0.32581  0.51595  Biso   1.000  Zn  0.676180
  Zn11     1.0000 0.69405  0.17419  0.51595  Biso   1.000  Zn  0.676180
  Zn12     1.0000 0.30595  0.82581  0.01595  Biso   1.000  Zn  0.676180
  Zn13     1.0000 0.69215  0.05771  0.94490  Biso   1.000  Zn  0.668164
  Zn14     1.0000 0.30785  0.94229  0.44490  Biso   1.000  Zn  0.668164
  Zn15     1.0000 0.80785  0.55771  0.44490  Biso   1.000  Zn  0.668164
  Zn16     1.0000 0.19215  0.44229  0.94490  Biso   1.000  Zn  0.668164
