data_image0
_cell_length_a       8.4319
_cell_length_b       12.8251
_cell_length_c       20.924
_cell_angle_alpha    73.462
_cell_angle_beta     84.692
_cell_angle_gamma    78.307

_symmetry_space_group_name_H-M    "P 1"
_symmetry_int_tables_number       1

loop_
  _symmetry_equiv_pos_as_xyz
  'x, y, z'

loop_
  _atom_site_label
  _atom_site_occupancy
  _atom_site_fract_x
  _atom_site_fract_y
  _atom_site_fract_z
  _atom_site_thermal_displace_type
  _atom_site_B_iso_or_equiv
  _atom_site_type_symbol
  _atom_site_charge
  C1       1.0000 0.54250  0.98450  0.21120  Biso   1.000  C  -0.102728
  C2       1.0000 0.46790  0.92990  0.17650  Biso   1.000  C  -0.030586
  C3       1.0000 0.40630  0.80410  0.28130  Biso   1.000  C  -0.153910
  C4       1.0000 0.40050  0.83900  0.21290  Biso   1.000  C  -0.097249
  C5       1.0000 0.83560  0.21380  0.90360  Biso   1.000  C  0.633167
  C6       1.0000 0.48930  0.85490  0.31570  Biso   1.000  C  0.075244
  C7       1.0000 0.11670  0.75640  0.76620  Biso   1.000  C  -0.156338
  C8       1.0000 0.96060  0.82120  0.75270  Biso   1.000  C  0.079829
  C9       1.0000 0.25060  0.47520  0.71370  Biso   1.000  C  0.052254
  C10      1.0000 0.97220  0.45550  0.77200  Biso   1.000  C  -0.153830
  C11      1.0000 0.93490  0.28210  0.85030  Biso   1.000  C  -0.054661
  C12      1.0000 0.23420  0.84630  0.91070  Biso   1.000  C  0.604192
  C13      1.0000 0.85430  0.79880  0.70740  Biso   1.000  C  0.053077
  C14      1.0000 0.46530  0.96680  0.10200  Biso   1.000  C  0.669069
  C15      1.0000 0.14020  0.84390  0.85300  Biso   1.000  C  -0.043850
  C16      1.0000 0.46320  0.60940  0.63330  Biso   1.000  C  0.193222
  C17      1.0000 0.55490  0.94760  0.27890  Biso   1.000  C  -0.148388
  C18      1.0000 0.91220  0.78100  0.64510  Biso   1.000  C  -0.131234
  C19      1.0000 0.69270  0.78760  0.72810  Biso   1.000  C  -0.122724
  C20      1.0000 0.13680  0.40910  0.75840  Biso   1.000  C  0.081800
  C21      1.0000 0.09500  0.23480  0.83420  Biso   1.000  C  -0.098786
  C22      1.0000 0.59510  0.75390  0.69090  Biso   1.000  C  -0.192648
  C23      1.0000 0.41180  0.46580  0.73180  Biso   1.000  C  -0.128602
  C24      1.0000 0.20530  0.76810  0.81580  Biso   1.000  C  -0.093665
  C25      1.0000 0.99010  0.91430  0.83690  Biso   1.000  C  -0.102354
  C26      1.0000 0.55320  0.72490  0.52660  Biso   1.000  C  0.191136
  C27      1.0000 0.51590  0.53050  0.69230  Biso   1.000  C  -0.193504
  C28      1.0000 0.20270  0.54980  0.65270  Biso   1.000  C  -0.130392
  C29      1.0000 0.65920  0.72840  0.63140  Biso   1.000  C  0.186162
  C30      1.0000 0.19470  0.29780  0.78990  Biso   1.000  C  -0.147525
  C31      1.0000 0.30620  0.61620  0.61310  Biso   1.000  C  -0.200606
  C32      1.0000 0.55660  0.65350  0.48610  Biso   1.000  C  -0.192622
  C33      1.0000 0.89990  0.90170  0.78840  Biso   1.000  C  -0.138987
  C34      1.0000 0.87320  0.39320  0.81730  Biso   1.000  C  -0.095740
  C35      1.0000 0.51040  0.81100  0.38860  Biso   1.000  C  0.056028
  C36      1.0000 0.53020  0.83920  0.49700  Biso   1.000  C  -0.195078
  C37      1.0000 0.81600  0.74580  0.60760  Biso   1.000  C  -0.197764
  C38      1.0000 0.51000  0.88170  0.42880  Biso   1.000  C  -0.132298
  C39      1.0000 0.53380  0.69650  0.41890  Biso   1.000  C  -0.124454
  C40      1.0000 0.45750  0.01550  0.78880  Biso   1.000  C  -0.102728
  C41      1.0000 0.53210  0.07010  0.82350  Biso   1.000  C  -0.030586
  C42      1.0000 0.59370  0.19590  0.71870  Biso   1.000  C  -0.153910
  C43      1.0000 0.59950  0.16100  0.78710  Biso   1.000  C  -0.097249
  C44      1.0000 0.16440  0.78620  0.09640  Biso   1.000  C  0.633168
  C45      1.0000 0.51070  0.14510  0.68430  Biso   1.000  C  0.075244
  C46      1.0000 0.88330  0.24360  0.23380  Biso   1.000  C  -0.156338
  C47      1.0000 0.03940  0.17880  0.24730  Biso   1.000  C  0.079829
  C48      1.0000 0.74940  0.52480  0.28630  Biso   1.000  C  0.052254
  C49      1.0000 0.02780  0.54450  0.22800  Biso   1.000  C  -0.153830
  C50      1.0000 0.06510  0.71790  0.14970  Biso   1.000  C  -0.054661
  C51      1.0000 0.76580  0.15370  0.08930  Biso   1.000  C  0.604192
  C52      1.0000 0.14570  0.20120  0.29260  Biso   1.000  C  0.053077
  C53      1.0000 0.53470  0.03320  0.89800  Biso   1.000  C  0.669069
  C54      1.0000 0.85980  0.15610  0.14700  Biso   1.000  C  -0.043850
  C55      1.0000 0.53680  0.39060  0.36670  Biso   1.000  C  0.193222
  C56      1.0000 0.44510  0.05240  0.72110  Biso   1.000  C  -0.148388
  C57      1.0000 0.08780  0.21900  0.35490  Biso   1.000  C  -0.131234
  C58      1.0000 0.30730  0.21240  0.27190  Biso   1.000  C  -0.122724
  C59      1.0000 0.86320  0.59090  0.24160  Biso   1.000  C  0.081800
  C60      1.0000 0.90500  0.76520  0.16580  Biso   1.000  C  -0.098786
  C61      1.0000 0.40490  0.24610  0.30910  Biso   1.000  C  -0.192648
  C62      1.0000 0.58820  0.53420  0.26820  Biso   1.000  C  -0.128602
  C63      1.0000 0.79470  0.23190  0.18420  Biso   1.000  C  -0.093665
  C64      1.0000 0.00990  0.08570  0.16310  Biso   1.000  C  -0.102354
  C65      1.0000 0.44680  0.27510  0.47340  Biso   1.000  C  0.191136
  C66      1.0000 0.48410  0.46950  0.30770  Biso   1.000  C  -0.193504
  C67      1.0000 0.79730  0.45020  0.34730  Biso   1.000  C  -0.130392
  C68      1.0000 0.34080  0.27160  0.36860  Biso   1.000  C  0.186162
  C69      1.0000 0.80530  0.70220  0.21010  Biso   1.000  C  -0.147525
  C70      1.0000 0.69380  0.38380  0.38690  Biso   1.000  C  -0.200606
  C71      1.0000 0.44340  0.34650  0.51390  Biso   1.000  C  -0.192622
  C72      1.0000 0.10010  0.09830  0.21160  Biso   1.000  C  -0.138987
  C73      1.0000 0.12680  0.60680  0.18270  Biso   1.000  C  -0.095740
  C74      1.0000 0.48960  0.18900  0.61140  Biso   1.000  C  0.056028
  C75      1.0000 0.46980  0.16080  0.50300  Biso   1.000  C  -0.195078
  C76      1.0000 0.18400  0.25420  0.39240  Biso   1.000  C  -0.197764
  C77      1.0000 0.49000  0.11830  0.57120  Biso   1.000  C  -0.132298
  C78      1.0000 0.46620  0.30350  0.58110  Biso   1.000  C  -0.124454
  H1       1.0000 0.58430  0.04700  0.18770  Biso   1.000  H  0.108046
  H2       1.0000 0.35490  0.74630  0.30510  Biso   1.000  H  0.115979
  H3       1.0000 0.35110  0.80150  0.19070  Biso   1.000  H  0.110743
  H4       1.0000 0.16000  0.70600  0.74200  Biso   1.000  H  0.111440
  H5       1.0000 0.93080  0.52870  0.75010  Biso   1.000  H  0.111584
  H6       1.0000 0.60700  0.98410  0.30080  Biso   1.000  H  0.117131
  H7       1.0000 0.01540  0.79280  0.62900  Biso   1.000  H  0.115619
  H8       1.0000 0.65070  0.80330  0.76770  Biso   1.000  H  0.120111
  H9       1.0000 0.13400  0.16020  0.85370  Biso   1.000  H  0.113261
  H10      1.0000 0.48850  0.74820  0.70500  Biso   1.000  H  0.125512
  H11      1.0000 0.44860  0.41480  0.77140  Biso   1.000  H  0.118522
  H12      1.0000 0.30830  0.72570  0.82440  Biso   1.000  H  0.121801
  H13      1.0000 0.95160  0.96900  0.85860  Biso   1.000  H  0.117744
  H14      1.0000 0.62170  0.52140  0.70500  Biso   1.000  H  0.123612
  H15      1.0000 0.09970  0.55510  0.63810  Biso   1.000  H  0.112037
  H16      1.0000 0.30070  0.26580  0.78110  Biso   1.000  H  0.109325
  H17      1.0000 0.27090  0.66570  0.57290  Biso   1.000  H  0.124614
  H18      1.0000 0.57430  0.57730  0.50490  Biso   1.000  H  0.124841
  H19      1.0000 0.79850  0.94620  0.77890  Biso   1.000  H  0.108514
  H20      1.0000 0.76670  0.42460  0.82580  Biso   1.000  H  0.119733
  H21      1.0000 0.52850  0.88700  0.52330  Biso   1.000  H  0.122251
  H22      1.0000 0.85560  0.73380  0.56680  Biso   1.000  H  0.129818
  H23      1.0000 0.49610  0.95780  0.40970  Biso   1.000  H  0.113397
  H24      1.0000 0.53380  0.64870  0.39280  Biso   1.000  H  0.109393
  H25      1.0000 0.41570  0.95300  0.81230  Biso   1.000  H  0.108046
  H26      1.0000 0.64510  0.25370  0.69490  Biso   1.000  H  0.115979
  H27      1.0000 0.64890  0.19850  0.80930  Biso   1.000  H  0.110743
  H28      1.0000 0.84000  0.29400  0.25800  Biso   1.000  H  0.111440
  H29      1.0000 0.06920  0.47130  0.24990  Biso   1.000  H  0.111584
  H30      1.0000 0.39300  0.01590  0.69920  Biso   1.000  H  0.117131
  H31      1.0000 0.98460  0.20720  0.37100  Biso   1.000  H  0.115619
  H32      1.0000 0.34930  0.19670  0.23230  Biso   1.000  H  0.120111
  H33      1.0000 0.86600  0.83980  0.14630  Biso   1.000  H  0.113261
  H34      1.0000 0.51150  0.25180  0.29500  Biso   1.000  H  0.125512
  H35      1.0000 0.55140  0.58520  0.22860  Biso   1.000  H  0.118522
  H36      1.0000 0.69170  0.27430  0.17560  Biso   1.000  H  0.121801
  H37      1.0000 0.04840  0.03100  0.14140  Biso   1.000  H  0.117744
  H38      1.0000 0.37830  0.47860  0.29500  Biso   1.000  H  0.123612
  H39      1.0000 0.90030  0.44490  0.36190  Biso   1.000  H  0.112037
  H40      1.0000 0.69930  0.73420  0.21890  Biso   1.000  H  0.109325
  H41      1.0000 0.72910  0.33430  0.42710  Biso   1.000  H  0.124614
  H42      1.0000 0.42570  0.42270  0.49510  Biso   1.000  H  0.124841
  H43      1.0000 0.20150  0.05380  0.22110  Biso   1.000  H  0.108514
  H44      1.0000 0.23330  0.57540  0.17420  Biso   1.000  H  0.119733
  H45      1.0000 0.47150  0.11300  0.47670  Biso   1.000  H  0.122251
  H46      1.0000 0.14440  0.26620  0.43320  Biso   1.000  H  0.129818
  H47      1.0000 0.50390  0.04220  0.59030  Biso   1.000  H  0.113397
  H48      1.0000 0.46620  0.35130  0.60720  Biso   1.000  H  0.109393
  Mg1      1.0000 0.43397  0.82994  0.00053  Biso   1.000  Mg  1.440414
  Mg2      1.0000 0.56603  0.17006  0.99947  Biso   1.000  Mg  1.440413
  Mg3      1.0000 0.00000  0.00000  0.00000  Biso   1.000  Mg  1.515424
  N1       1.0000 0.56630  0.68230  0.59646  Biso   1.000  N  -0.182035
  N2       1.0000 0.43370  0.31770  0.40354  Biso   1.000  N  -0.182035
  O1       1.0000 0.35940  0.77130  0.92675  Biso   1.000  O  -0.616011
  O2       1.0000 0.18910  0.92210  0.94120  Biso   1.000  O  -0.746598
  O3       1.0000 0.70690  0.26220  0.92687  Biso   1.000  O  -0.630171
  O4       1.0000 0.89080  0.10890  0.92081  Biso   1.000  O  -0.742892
  O5       1.0000 0.44180  0.07000  0.07450  Biso   1.000  O  -0.691691
  O6       1.0000 0.48530  0.89160  0.07234  Biso   1.000  O  -0.708412
  O7       1.0000 0.64060  0.22870  0.07325  Biso   1.000  O  -0.616011
  O8       1.0000 0.81090  0.07790  0.05880  Biso   1.000  O  -0.746598
  O9       1.0000 0.29310  0.73780  0.07313  Biso   1.000  O  -0.630171
  O10      1.0000 0.10920  0.89110  0.07919  Biso   1.000  O  -0.742892
  O11      1.0000 0.55820  0.93000  0.92550  Biso   1.000  O  -0.691691
  O12      1.0000 0.51470  0.10840  0.92766  Biso   1.000  O  -0.708412
