data_image0
_cell_length_a       14.6518
_cell_length_b       14.6518
_cell_length_c       14.6518
_cell_angle_alpha    90
_cell_angle_beta     90
_cell_angle_gamma    90

_symmetry_space_group_name_H-M    "P 1"
_symmetry_int_tables_number       1

loop_
  _symmetry_equiv_pos_as_xyz
  'x, y, z'

loop_
  _atom_site_label
  _atom_site_occupancy
  _atom_site_fract_x
  _atom_site_fract_y
  _atom_site_fract_z
  _atom_site_thermal_displace_type
  _atom_site_B_iso_or_equiv
  _atom_site_type_symbol
  _atom_site_charge
  C1       1.0000 0.86920  0.48600  0.29270  Biso   1.000  C  0.602381
  C2       1.0000 0.79410  0.42270  0.15610  Biso   1.000  C  -0.107142
  C3       1.0000 0.86330  0.41510  0.21640  Biso   1.000  C  -0.013046
  C4       1.0000 0.63080  0.51400  0.79270  Biso   1.000  C  0.602382
  C5       1.0000 0.70590  0.57730  0.65610  Biso   1.000  C  -0.107142
  C6       1.0000 0.63670  0.58490  0.71640  Biso   1.000  C  -0.013045
  C7       1.0000 0.13080  0.98600  0.20730  Biso   1.000  C  0.602381
  C8       1.0000 0.20590  0.92270  0.34390  Biso   1.000  C  -0.107142
  C9       1.0000 0.13670  0.91510  0.28360  Biso   1.000  C  -0.013045
  C10      1.0000 0.36920  0.01400  0.70730  Biso   1.000  C  0.602381
  C11      1.0000 0.29410  0.07730  0.84390  Biso   1.000  C  -0.107142
  C12      1.0000 0.36330  0.08490  0.78360  Biso   1.000  C  -0.013045
  C13      1.0000 0.29270  0.86920  0.48600  Biso   1.000  C  0.602380
  C14      1.0000 0.15610  0.79410  0.42270  Biso   1.000  C  -0.107143
  C15      1.0000 0.21640  0.86330  0.41510  Biso   1.000  C  -0.013036
  C16      1.0000 0.79270  0.63080  0.51400  Biso   1.000  C  0.602380
  C17      1.0000 0.65610  0.70590  0.57730  Biso   1.000  C  -0.107143
  C18      1.0000 0.71640  0.63670  0.58490  Biso   1.000  C  -0.013036
  C19      1.0000 0.20730  0.13080  0.98600  Biso   1.000  C  0.602380
  C20      1.0000 0.34390  0.20590  0.92270  Biso   1.000  C  -0.107143
  C21      1.0000 0.28360  0.13670  0.91510  Biso   1.000  C  -0.013036
  C22      1.0000 0.70730  0.36920  0.01400  Biso   1.000  C  0.602380
  C23      1.0000 0.84390  0.29410  0.07730  Biso   1.000  C  -0.107143
  C24      1.0000 0.78360  0.36330  0.08490  Biso   1.000  C  -0.013035
  C25      1.0000 0.48600  0.29270  0.86920  Biso   1.000  C  0.602380
  C26      1.0000 0.42270  0.15610  0.79410  Biso   1.000  C  -0.107132
  C27      1.0000 0.41510  0.21640  0.86330  Biso   1.000  C  -0.013036
  C28      1.0000 0.51400  0.79270  0.63080  Biso   1.000  C  0.602380
  C29      1.0000 0.57730  0.65610  0.70590  Biso   1.000  C  -0.107133
  C30      1.0000 0.58490  0.71640  0.63670  Biso   1.000  C  -0.013037
  C31      1.0000 0.98600  0.20730  0.13080  Biso   1.000  C  0.602380
  C32      1.0000 0.92270  0.34390  0.20590  Biso   1.000  C  -0.107133
  C33      1.0000 0.91510  0.28360  0.13670  Biso   1.000  C  -0.013037
  C34      1.0000 0.01400  0.70730  0.36920  Biso   1.000  C  0.602379
  C35      1.0000 0.07730  0.84390  0.29410  Biso   1.000  C  -0.107133
  C36      1.0000 0.08490  0.78360  0.36330  Biso   1.000  C  -0.013037
  Cl1      1.0000 0.03790  0.46210  0.53790  Biso   1.000  Cl  -0.437194
  Cl2      1.0000 0.46210  0.53790  0.03790  Biso   1.000  Cl  -0.437193
  Cl3      1.0000 0.96210  0.96210  0.96210  Biso   1.000  Cl  -0.437193
  Cl4      1.0000 0.53790  0.03790  0.46210  Biso   1.000  Cl  -0.437194
  Co1      1.0000 0.95576  0.54424  0.45576  Biso   1.000  Co  0.979352
  Co2      1.0000 0.81633  0.68367  0.31633  Biso   1.000  Co  0.885967
  Co3      1.0000 0.54424  0.45576  0.95576  Biso   1.000  Co  0.979355
  Co4      1.0000 0.68367  0.31633  0.81633  Biso   1.000  Co  0.885971
  Co5      1.0000 0.04424  0.04424  0.04424  Biso   1.000  Co  0.979353
  Co6      1.0000 0.18367  0.18367  0.18367  Biso   1.000  Co  0.885967
  Co7      1.0000 0.45576  0.95576  0.54424  Biso   1.000  Co  0.979352
  Co8      1.0000 0.31633  0.81633  0.68367  Biso   1.000  Co  0.885969
  H1       1.0000 0.75220  0.46990  0.16320  Biso   1.000  H  0.124572
  H2       1.0000 0.74780  0.53010  0.66320  Biso   1.000  H  0.124572
  H3       1.0000 0.24780  0.96990  0.33680  Biso   1.000  H  0.124571
  H4       1.0000 0.25220  0.03010  0.83680  Biso   1.000  H  0.124572
  H5       1.0000 0.16320  0.75220  0.46990  Biso   1.000  H  0.124572
  H6       1.0000 0.66320  0.74780  0.53010  Biso   1.000  H  0.124572
  H7       1.0000 0.33680  0.24780  0.96990  Biso   1.000  H  0.124572
  H8       1.0000 0.83680  0.25220  0.03010  Biso   1.000  H  0.124572
  H9       1.0000 0.46990  0.16320  0.75220  Biso   1.000  H  0.124571
  H10      1.0000 0.53010  0.66320  0.74780  Biso   1.000  H  0.124571
  H11      1.0000 0.96990  0.33680  0.24780  Biso   1.000  H  0.124571
  H12      1.0000 0.03010  0.83680  0.25220  Biso   1.000  H  0.124571
  O1       1.0000 0.81950  0.55250  0.29030  Biso   1.000  O  -0.547071
  O2       1.0000 0.93700  0.46880  0.34890  Biso   1.000  O  -0.535745
  O3       1.0000 0.68050  0.44750  0.79030  Biso   1.000  O  -0.547071
  O4       1.0000 0.56300  0.53120  0.84890  Biso   1.000  O  -0.535746
  O5       1.0000 0.18050  0.05250  0.20970  Biso   1.000  O  -0.547070
  O6       1.0000 0.06300  0.96880  0.15110  Biso   1.000  O  -0.535745
  O7       1.0000 0.31950  0.94750  0.70970  Biso   1.000  O  -0.547071
  O8       1.0000 0.43700  0.03120  0.65110  Biso   1.000  O  -0.535746
  O9       1.0000 0.29030  0.81950  0.55250  Biso   1.000  O  -0.547070
  O10      1.0000 0.34890  0.93700  0.46880  Biso   1.000  O  -0.535745
  O11      1.0000 0.79030  0.68050  0.44750  Biso   1.000  O  -0.547070
  O12      1.0000 0.84890  0.56300  0.53120  Biso   1.000  O  -0.535745
  O13      1.0000 0.20970  0.18050  0.05250  Biso   1.000  O  -0.547070
  O14      1.0000 0.15110  0.06300  0.96880  Biso   1.000  O  -0.535745
  O15      1.0000 0.70970  0.31950  0.94750  Biso   1.000  O  -0.547071
  O16      1.0000 0.65110  0.43700  0.03120  Biso   1.000  O  -0.535746
  O17      1.0000 0.55250  0.29030  0.81950  Biso   1.000  O  -0.547071
  O18      1.0000 0.46880  0.34890  0.93700  Biso   1.000  O  -0.535746
  O19      1.0000 0.44750  0.79030  0.68050  Biso   1.000  O  -0.547071
  O20      1.0000 0.53120  0.84890  0.56300  Biso   1.000  O  -0.535745
  O21      1.0000 0.05250  0.20970  0.18050  Biso   1.000  O  -0.547070
  O22      1.0000 0.96880  0.15110  0.06300  Biso   1.000  O  -0.535745
  O23      1.0000 0.94750  0.70970  0.31950  Biso   1.000  O  -0.547070
  O24      1.0000 0.03120  0.65110  0.43700  Biso   1.000  O  -0.535744
