data_image0
_cell_length_a       16.9881
_cell_length_b       16.9881
_cell_length_c       16.9881
_cell_angle_alpha    63.2673
_cell_angle_beta     77.1611
_cell_angle_gamma    109.145

_symmetry_space_group_name_H-M    "P 1"
_symmetry_int_tables_number       1

loop_
  _symmetry_equiv_pos_as_xyz
  'x, y, z'

loop_
  _atom_site_label
  _atom_site_occupancy
  _atom_site_fract_x
  _atom_site_fract_y
  _atom_site_fract_z
  _atom_site_thermal_displace_type
  _atom_site_B_iso_or_equiv
  _atom_site_type_symbol
  _atom_site_charge
  C1       1.0000 0.84230  0.25840  0.37610  Biso   1.000  C  0.542667
  C2       1.0000 0.84410  0.17430  0.45700  Biso   1.000  C  -0.024154
  C3       1.0000 0.92390  0.16150  0.44440  Biso   1.000  C  -0.119518
  C4       1.0000 0.77820  0.04570  0.63290  Biso   1.000  C  -0.021464
  C5       1.0000 0.85430  0.03380  0.61990  Biso   1.000  C  -0.110849
  C6       1.0000 0.92860  0.09350  0.52150  Biso   1.000  C  -0.031243
  C7       1.0000 0.01540  0.08160  0.50580  Biso   1.000  C  0.625259
  C8       1.0000 0.76730  0.11270  0.54820  Biso   1.000  C  -0.114929
  C9       1.0000 0.82730  0.02650  0.32720  Biso   1.000  C  -0.066627
  C10      1.0000 0.91260  0.03700  0.32280  Biso   1.000  C  -0.064625
  C11      1.0000 0.92270  0.95580  0.38070  Biso   1.000  C  -0.012887
  C12      1.0000 0.84710  0.86360  0.44630  Biso   1.000  C  -0.098900
  C13      1.0000 0.75440  0.84720  0.45220  Biso   1.000  C  -0.014597
  C14      1.0000 0.75030  0.93530  0.39480  Biso   1.000  C  -0.123347
  C15      1.0000 0.81190  0.11550  0.26440  Biso   1.000  C  0.610169
  C16      1.0000 0.01600  0.96600  0.37860  Biso   1.000  C  0.631594
  C17      1.0000 0.70270  0.99410  0.72780  Biso   1.000  C  0.632984
  C18      1.0000 0.67420  0.74690  0.51830  Biso   1.000  C  0.622319
  C19      1.0000 0.15770  0.78160  0.58390  Biso   1.000  C  0.542535
  C20      1.0000 0.15590  0.69890  0.66980  Biso   1.000  C  -0.024410
  C21      1.0000 0.07610  0.63170  0.76240  Biso   1.000  C  -0.118110
  C22      1.0000 0.22180  0.58890  0.73250  Biso   1.000  C  -0.023354
  C23      1.0000 0.14570  0.52580  0.82050  Biso   1.000  C  -0.108127
  C24      1.0000 0.07140  0.54990  0.83510  Biso   1.000  C  -0.031907
  C25      1.0000 0.98460  0.47880  0.93380  Biso   1.000  C  0.625263
  C26      1.0000 0.23270  0.68450  0.65460  Biso   1.000  C  -0.114472
  C27      1.0000 0.17270  0.84550  0.80080  Biso   1.000  C  -0.066702
  C28      1.0000 0.08740  0.76460  0.87560  Biso   1.000  C  -0.065214
  C29      1.0000 0.07730  0.69660  0.96690  Biso   1.000  C  -0.013120
  C30      1.0000 0.15290  0.70660  0.98350  Biso   1.000  C  -0.098922
  C31      1.0000 0.24560  0.79340  0.90720  Biso   1.000  C  -0.013955
  C32      1.0000 0.24970  0.85490  0.81500  Biso   1.000  C  -0.123372
  C33      1.0000 0.18810  0.92370  0.69640  Biso   1.000  C  0.610181
  C34      1.0000 0.98400  0.60540  0.05000  Biso   1.000  C  0.631694
  C35      1.0000 0.29730  0.56950  0.70860  Biso   1.000  C  0.641124
  C36      1.0000 0.32580  0.80750  0.92730  Biso   1.000  C  0.622154
  C37      1.0000 0.63450  0.75840  0.08390  Biso   1.000  C  0.535607
  C38      1.0000 0.63130  0.67430  0.16980  Biso   1.000  C  -0.029323
  C39      1.0000 0.60590  0.66150  0.26240  Biso   1.000  C  -0.117810
  C40      1.0000 0.67860  0.54570  0.23250  Biso   1.000  C  -0.021636
  C41      1.0000 0.65370  0.53380  0.32050  Biso   1.000  C  -0.106975
  C42      1.0000 0.61500  0.59350  0.33510  Biso   1.000  C  -0.030098
  C43      1.0000 0.58740  0.58160  0.43380  Biso   1.000  C  0.625046
  C44      1.0000 0.66090  0.61270  0.15460  Biso   1.000  C  -0.114858
  C45      1.0000 0.35370  0.52650  0.30080  Biso   1.000  C  -0.066719
  C46      1.0000 0.35980  0.53700  0.37560  Biso   1.000  C  -0.065794
  C47      1.0000 0.33650  0.45580  0.46690  Biso   1.000  C  -0.012924
  C48      1.0000 0.30990  0.36360  0.48350  Biso   1.000  C  -0.099304
  C49      1.0000 0.29940  0.34720  0.40720  Biso   1.000  C  -0.014301
  C50      1.0000 0.33010  0.43530  0.31500  Biso   1.000  C  -0.123679
  C51      1.0000 0.37990  0.61550  0.19640  Biso   1.000  C  0.608281
  C52      1.0000 0.34460  0.46600  0.55000  Biso   1.000  C  0.631598
  C53      1.0000 0.72190  0.49410  0.20860  Biso   1.000  C  0.640590
  C54      1.0000 0.26520  0.24690  0.42730  Biso   1.000  C  0.622308
  C55      1.0000 0.36550  0.28160  0.87610  Biso   1.000  C  0.542542
  C56      1.0000 0.36870  0.19890  0.95700  Biso   1.000  C  -0.024613
  C57      1.0000 0.39410  0.13170  0.94440  Biso   1.000  C  -0.118252
  C58      1.0000 0.32140  0.08890  0.13290  Biso   1.000  C  -0.023488
  C59      1.0000 0.34630  0.02580  0.11990  Biso   1.000  C  -0.108239
  C60      1.0000 0.38500  0.04990  0.02150  Biso   1.000  C  -0.031790
  C61      1.0000 0.41260  0.97880  0.00580  Biso   1.000  C  0.625112
  C62      1.0000 0.33910  0.18450  0.04820  Biso   1.000  C  -0.114792
  C63      1.0000 0.64630  0.34550  0.82720  Biso   1.000  C  -0.066348
  C64      1.0000 0.64020  0.26460  0.82280  Biso   1.000  C  -0.064824
  C65      1.0000 0.66350  0.19660  0.88070  Biso   1.000  C  -0.011081
  C66      1.0000 0.69010  0.20660  0.94630  Biso   1.000  C  -0.099548
  C67      1.0000 0.70060  0.29340  0.95220  Biso   1.000  C  -0.014010
  C68      1.0000 0.66990  0.35490  0.89480  Biso   1.000  C  -0.123271
  C69      1.0000 0.62010  0.42370  0.76440  Biso   1.000  C  0.610207
  C70      1.0000 0.65540  0.10540  0.87860  Biso   1.000  C  0.626691
  C71      1.0000 0.27810  0.06950  0.22780  Biso   1.000  C  0.641128
  C72      1.0000 0.73480  0.30750  0.01830  Biso   1.000  C  0.622368
  Co1      1.0000 0.14104  0.02741  0.56291  Biso   1.000  Co  0.912179
  Co2      1.0000 0.18738  0.14192  0.33364  Biso   1.000  Co  1.105764
  Co3      1.0000 0.13789  0.89665  0.44126  Biso   1.000  Co  1.001090
  Co4      1.0000 0.85896  0.29605  0.11363  Biso   1.000  Co  0.912174
  Co5      1.0000 0.81262  0.47898  0.04546  Biso   1.000  Co  1.104971
  Co6      1.0000 0.86211  0.42085  0.24124  Biso   1.000  Co  1.000660
  Co7      1.0000 0.59032  0.52741  0.61363  Biso   1.000  Co  0.911779
  Co8      1.0000 0.47556  0.64192  0.54546  Biso   1.000  Co  1.105242
  Co9      1.0000 0.33791  0.39665  0.74124  Biso   1.000  Co  1.001184
  Co10     1.0000 0.40968  0.79605  0.06291  Biso   1.000  Co  0.906108
  Co11     1.0000 0.52444  0.97898  0.83364  Biso   1.000  Co  1.106059
  Co12     1.0000 0.66209  0.92085  0.94126  Biso   1.000  Co  0.838546
  H1       1.0000 0.97310  0.20070  0.38220  Biso   1.000  H  0.132618
  H2       1.0000 0.85890  0.98820  0.67310  Biso   1.000  H  0.138415
  H3       1.0000 0.71260  0.07900  0.25880  Biso   1.000  H  0.477186
  H4       1.0000 0.71190  0.11370  0.55540  Biso   1.000  H  0.140087
  H5       1.0000 0.96490  0.10070  0.27940  Biso   1.000  H  0.128768
  H6       1.0000 0.85340  0.80990  0.48810  Biso   1.000  H  0.130869
  H7       1.0000 0.69250  0.93080  0.40370  Biso   1.000  H  0.117927
  H8       1.0000 0.14100  0.96700  0.50400  Biso   1.000  H  0.326740
  H9       1.0000 0.02690  0.64470  0.77240  Biso   1.000  H  0.132594
  H10      1.0000 0.14110  0.46800  0.87070  Biso   1.000  H  0.138275
  H11      1.0000 0.28740  0.02860  0.63360  Biso   1.000  H  0.477208
  H12      1.0000 0.28810  0.73270  0.59820  Biso   1.000  H  0.140112
  H13      1.0000 0.03510  0.75570  0.86420  Biso   1.000  H  0.128576
  H14      1.0000 0.14660  0.65850  0.04350  Biso   1.000  H  0.130913
  H15      1.0000 0.30750  0.90380  0.76170  Biso   1.000  H  0.117961
  H16      1.0000 0.85900  0.35500  0.17400  Biso   1.000  H  0.326805
  H17      1.0000 0.58290  0.70070  0.27240  Biso   1.000  H  0.132772
  H18      1.0000 0.66130  0.48820  0.37070  Biso   1.000  H  0.138821
  H19      1.0000 0.33780  0.57900  0.13360  Biso   1.000  H  0.477251
  H20      1.0000 0.66910  0.61370  0.09820  Biso   1.000  H  0.140020
  H21      1.0000 0.38010  0.60070  0.36420  Biso   1.000  H  0.128504
  H22      1.0000 0.29800  0.30990  0.54350  Biso   1.000  H  0.130924
  H23      1.0000 0.33450  0.43080  0.26170  Biso   1.000  H  0.117900
  H24      1.0000 0.47100  0.46700  0.67400  Biso   1.000  H  0.326697
  H25      1.0000 0.41710  0.14470  0.88220  Biso   1.000  H  0.132639
  H26      1.0000 0.33870  0.96800  0.17310  Biso   1.000  H  0.138220
  H27      1.0000 0.66220  0.52860  0.75880  Biso   1.000  H  0.477187
  H28      1.0000 0.33090  0.23270  0.05540  Biso   1.000  H  0.140041
  H29      1.0000 0.61990  0.25570  0.77940  Biso   1.000  H  0.128900
  H30      1.0000 0.70200  0.15850  0.98810  Biso   1.000  H  0.131232
  H31      1.0000 0.66550  0.40380  0.90370  Biso   1.000  H  0.117897
  H32      1.0000 0.52900  0.85500  0.00400  Biso   1.000  H  0.329100
  O1       1.0000 0.77190  0.26780  0.38710  Biso   1.000  O  -0.514621
  O2       1.0000 0.91680  0.32270  0.29370  Biso   1.000  O  -0.583143
  O3       1.0000 0.07870  0.14080  0.42150  Biso   1.000  O  -0.606631
  O4       1.0000 0.01680  0.02110  0.57890  Biso   1.000  O  -0.518052
  O5       1.0000 0.89170  0.19340  0.18910  Biso   1.000  O  -0.473288
  O6       1.0000 0.73900  0.10960  0.27940  Biso   1.000  O  -0.456329
  O7       1.0000 0.02000  0.89790  0.43970  Biso   1.000  O  -0.532098
  O8       1.0000 0.08480  0.05490  0.31530  Biso   1.000  O  -0.620206
  O9       1.0000 0.59740  0.74510  0.53590  Biso   1.000  O  -0.569357
  O10      1.0000 0.61980  0.97600  0.73880  Biso   1.000  O  -0.579559
  O11      1.0000 0.18310  0.02200  0.45130  Biso   1.000  O  -0.903136
  O12      1.0000 0.72260  0.96610  0.79790  Biso   1.000  O  -0.511727
  O13      1.0000 0.68670  0.67130  0.55040  Biso   1.000  O  -0.572902
  O14      1.0000 0.22810  0.84100  0.50410  Biso   1.000  O  -0.514543
  O15      1.0000 0.08320  0.78950  0.59410  Biso   1.000  O  -0.583521
  O16      1.0000 0.92130  0.49980  0.93790  Biso   1.000  O  -0.606710
  O17      1.0000 0.98320  0.40430  0.99570  Biso   1.000  O  -0.517924
  O18      1.0000 0.10830  0.91920  0.69830  Biso   1.000  O  -0.473559
  O19      1.0000 0.26100  0.98160  0.62940  Biso   1.000  O  -0.456361
  O20      1.0000 0.98000  0.54030  0.12210  Biso   1.000  O  -0.531897
  O21      1.0000 0.91520  0.59990  0.02990  Biso   1.000  O  -0.620764
  O22      1.0000 0.40260  0.86670  0.85230  Biso   1.000  O  -0.570033
  O23      1.0000 0.38020  0.64140  0.64380  Biso   1.000  O  -0.580414
  O24      1.0000 0.81690  0.36560  0.16110  Biso   1.000  O  -0.903076
  O25      1.0000 0.27740  0.47950  0.75650  Biso   1.000  O  -0.552117
  O26      1.0000 0.31330  0.76290  0.01540  Biso   1.000  O  -0.572669
  O27      1.0000 0.65490  0.76780  0.00410  Biso   1.000  O  -0.465383
  O28      1.0000 0.61640  0.82270  0.09410  Biso   1.000  O  -0.534887
  O29      1.0000 0.56230  0.64080  0.43790  Biso   1.000  O  -0.606753
  O30      1.0000 0.60000  0.52110  0.49570  Biso   1.000  O  -0.517812
  O31      1.0000 0.38250  0.69340  0.19830  Biso   1.000  O  -0.473921
  O32      1.0000 0.38900  0.60960  0.12940  Biso   1.000  O  -0.457351
  O33      1.0000 0.33760  0.39790  0.62210  Biso   1.000  O  -0.531980
  O34      1.0000 0.37020  0.55490  0.52990  Biso   1.000  O  -0.620336
  O35      1.0000 0.28100  0.24510  0.35230  Biso   1.000  O  -0.569620
  O36      1.0000 0.71480  0.47600  0.14380  Biso   1.000  O  -0.580784
  O37      1.0000 0.47330  0.52200  0.66110  Biso   1.000  O  -0.903046
  O38      1.0000 0.76400  0.46610  0.25650  Biso   1.000  O  -0.551803
  O39      1.0000 0.22170  0.17130  0.51540  Biso   1.000  O  -0.572648
  O40      1.0000 0.34510  0.34100  0.88710  Biso   1.000  O  -0.514630
  O41      1.0000 0.38360  0.28950  0.79370  Biso   1.000  O  -0.583436
  O42      1.0000 0.43770  0.99980  0.92150  Biso   1.000  O  -0.607186
  O43      1.0000 0.40000  0.90430  0.07890  Biso   1.000  O  -0.518050
  O44      1.0000 0.61750  0.41920  0.68910  Biso   1.000  O  -0.473357
  O45      1.0000 0.61100  0.48160  0.77940  Biso   1.000  O  -0.456297
  O46      1.0000 0.66240  0.04030  0.93970  Biso   1.000  O  -0.495102
  O47      1.0000 0.62980  0.09990  0.81530  Biso   1.000  O  -0.615975
  O48      1.0000 0.71900  0.36670  0.03590  Biso   1.000  O  -0.569619
  O49      1.0000 0.28520  0.14140  0.23880  Biso   1.000  O  -0.580634
  O50      1.0000 0.52670  0.86560  0.95130  Biso   1.000  O  -0.889935
  O51      1.0000 0.23600  0.97950  0.29790  Biso   1.000  O  -0.552158
  O52      1.0000 0.77830  0.26290  0.05040  Biso   1.000  O  -0.572519
