data_image0
_cell_length_a       15.0911
_cell_length_b       16.7006
_cell_length_c       24.236
_cell_angle_alpha    90
_cell_angle_beta     90
_cell_angle_gamma    90

_symmetry_space_group_name_H-M    "P 1"
_symmetry_int_tables_number       1

loop_
  _symmetry_equiv_pos_as_xyz
  'x, y, z'

loop_
  _atom_site_label
  _atom_site_occupancy
  _atom_site_fract_x
  _atom_site_fract_y
  _atom_site_fract_z
  _atom_site_thermal_displace_type
  _atom_site_B_iso_or_equiv
  _atom_site_type_symbol
  _atom_site_charge
  C1       1.0000 0.36420  0.63170  0.88210  Biso   1.000  C  0.093022
  C2       1.0000 0.13580  0.36830  0.38210  Biso   1.000  C  0.093099
  C3       1.0000 0.86420  0.86830  0.11790  Biso   1.000  C  0.093146
  C4       1.0000 0.63580  0.13170  0.61790  Biso   1.000  C  0.092817
  C5       1.0000 0.36670  0.71420  0.87180  Biso   1.000  C  -0.152585
  C6       1.0000 0.13330  0.28580  0.37180  Biso   1.000  C  -0.153492
  C7       1.0000 0.86670  0.78580  0.12820  Biso   1.000  C  -0.152521
  C8       1.0000 0.63330  0.21420  0.62820  Biso   1.000  C  -0.152612
  C9       1.0000 0.28860  0.75610  0.86725  Biso   1.000  C  0.022423
  C10      1.0000 0.21140  0.24390  0.36725  Biso   1.000  C  0.023783
  C11      1.0000 0.78860  0.74390  0.13275  Biso   1.000  C  0.022468
  C12      1.0000 0.71140  0.25610  0.63275  Biso   1.000  C  0.022356
  C13      1.0000 0.20980  0.71380  0.87240  Biso   1.000  C  -0.162135
  C14      1.0000 0.29020  0.28620  0.37240  Biso   1.000  C  -0.164017
  C15      1.0000 0.70980  0.78620  0.12760  Biso   1.000  C  -0.162131
  C16      1.0000 0.79020  0.21380  0.62760  Biso   1.000  C  -0.162110
  C17      1.0000 0.21200  0.63340  0.88060  Biso   1.000  C  0.074205
  C18      1.0000 0.28800  0.36660  0.38060  Biso   1.000  C  0.074536
  C19      1.0000 0.71200  0.86660  0.11940  Biso   1.000  C  0.074315
  C20      1.0000 0.78800  0.13340  0.61940  Biso   1.000  C  0.074280
  C21      1.0000 0.29290  0.84450  0.85555  Biso   1.000  C  0.594550
  C22      1.0000 0.20710  0.15550  0.35555  Biso   1.000  C  0.583463
  C23      1.0000 0.79290  0.65550  0.14445  Biso   1.000  C  0.594592
  C24      1.0000 0.70710  0.34450  0.64445  Biso   1.000  C  0.594558
  C25      1.0000 0.21080  0.50690  0.00190  Biso   1.000  C  0.085044
  C26      1.0000 0.28920  0.49310  0.50190  Biso   1.000  C  0.085086
  C27      1.0000 0.71080  0.99310  0.99810  Biso   1.000  C  0.085016
  C28      1.0000 0.78920  0.00690  0.49810  Biso   1.000  C  0.084873
  C29      1.0000 0.15210  0.50610  0.04540  Biso   1.000  C  -0.163258
  C30      1.0000 0.34790  0.49390  0.54540  Biso   1.000  C  -0.163343
  C31      1.0000 0.65210  0.99390  0.95460  Biso   1.000  C  -0.163287
  C32      1.0000 0.84790  0.00610  0.45460  Biso   1.000  C  -0.163872
  C33      1.0000 0.08110  0.45630  0.04390  Biso   1.000  C  0.036499
  C34      1.0000 0.41890  0.54370  0.54390  Biso   1.000  C  0.036458
  C35      1.0000 0.58110  0.04370  0.95610  Biso   1.000  C  0.036499
  C36      1.0000 0.91890  0.95630  0.45610  Biso   1.000  C  0.037184
  C37      1.0000 0.07030  0.40990  0.99820  Biso   1.000  C  -0.152223
  C38      1.0000 0.42970  0.59010  0.49820  Biso   1.000  C  -0.152225
  C39      1.0000 0.57030  0.09010  0.00180  Biso   1.000  C  -0.152207
  C40      1.0000 0.92970  0.90990  0.50180  Biso   1.000  C  -0.152785
  C41      1.0000 0.12980  0.41610  0.95520  Biso   1.000  C  0.067019
  C42      1.0000 0.37020  0.58390  0.45520  Biso   1.000  C  0.067375
  C43      1.0000 0.62980  0.08390  0.04480  Biso   1.000  C  0.067106
  C44      1.0000 0.87020  0.91610  0.54480  Biso   1.000  C  0.066766
  C45      1.0000 0.01570  0.45110  0.09080  Biso   1.000  C  0.587155
  C46      1.0000 0.48430  0.54890  0.59080  Biso   1.000  C  0.587184
  C47      1.0000 0.51570  0.04890  0.90920  Biso   1.000  C  0.587105
  C48      1.0000 0.98430  0.95110  0.40920  Biso   1.000  C  0.583434
  C49      1.0000 0.79660  0.21730  0.07260  Biso   1.000  C  0.513878
  C50      1.0000 0.70340  0.78270  0.57260  Biso   1.000  C  0.513810
  C51      1.0000 0.29660  0.28270  0.92740  Biso   1.000  C  0.513758
  C52      1.0000 0.20340  0.71730  0.42740  Biso   1.000  C  0.510146
  C53      1.0000 0.71000  0.31500  0.21120  Biso   1.000  C  0.526666
  C54      1.0000 0.79000  0.68500  0.71120  Biso   1.000  C  0.526579
  C55      1.0000 0.21000  0.18500  0.78880  Biso   1.000  C  0.526572
  C56      1.0000 0.29000  0.81500  0.28880  Biso   1.000  C  0.517035
  C57      1.0000 0.54980  0.44540  0.09180  Biso   1.000  C  0.095155
  C58      1.0000 0.95020  0.55460  0.59180  Biso   1.000  C  0.095136
  C59      1.0000 0.04980  0.05460  0.90820  Biso   1.000  C  0.095143
  C60      1.0000 0.45020  0.94540  0.40820  Biso   1.000  C  0.089252
  C61      1.0000 0.49940  0.44130  0.04370  Biso   1.000  C  -0.165640
  C62      1.0000 0.00060  0.55870  0.54370  Biso   1.000  C  -0.165547
  C63      1.0000 0.99940  0.05870  0.95630  Biso   1.000  C  -0.165622
  C64      1.0000 0.50060  0.94130  0.45630  Biso   1.000  C  -0.164755
  C65      1.0000 0.52590  0.47800  0.99840  Biso   1.000  C  0.037735
  C66      1.0000 0.97410  0.52200  0.49840  Biso   1.000  C  0.037855
  C67      1.0000 0.02590  0.02200  0.00160  Biso   1.000  C  0.037624
  C68      1.0000 0.47410  0.97800  0.50160  Biso   1.000  C  0.036769
  C69      1.0000 0.60320  0.52090  0.00180  Biso   1.000  C  -0.150465
  C70      1.0000 0.89680  0.47910  0.50180  Biso   1.000  C  -0.150415
  C71      1.0000 0.10320  0.97910  0.99820  Biso   1.000  C  -0.150588
  C72      1.0000 0.39680  0.02090  0.49820  Biso   1.000  C  -0.149537
  C73      1.0000 0.64820  0.52250  0.05200  Biso   1.000  C  0.067980
  C74      1.0000 0.85180  0.47750  0.55200  Biso   1.000  C  0.067978
  C75      1.0000 0.14820  0.97750  0.94800  Biso   1.000  C  0.067997
  C76      1.0000 0.35180  0.02250  0.44800  Biso   1.000  C  0.061477
  C77      1.0000 0.47590  0.47620  0.94450  Biso   1.000  C  0.585986
  C78      1.0000 0.02410  0.52380  0.44450  Biso   1.000  C  0.586041
  C79      1.0000 0.97590  0.02380  0.05550  Biso   1.000  C  0.586096
  C80      1.0000 0.52410  0.97620  0.55550  Biso   1.000  C  0.585844
  C81      1.0000 0.53360  0.59350  0.20260  Biso   1.000  C  0.076027
  C82      1.0000 0.96640  0.40650  0.70260  Biso   1.000  C  0.076078
  C83      1.0000 0.03360  0.90650  0.79740  Biso   1.000  C  0.076062
  C84      1.0000 0.46640  0.09350  0.29740  Biso   1.000  C  0.068166
  C85      1.0000 0.45140  0.61030  0.22560  Biso   1.000  C  -0.156919
  C86      1.0000 0.04860  0.38970  0.72560  Biso   1.000  C  -0.156871
  C87      1.0000 0.95140  0.88970  0.77440  Biso   1.000  C  -0.156852
  C88      1.0000 0.54860  0.11030  0.27440  Biso   1.000  C  -0.156179
  C89      1.0000 0.42150  0.56520  0.26860  Biso   1.000  C  0.028321
  C90      1.0000 0.07850  0.43480  0.76860  Biso   1.000  C  0.028288
  C91      1.0000 0.92150  0.93480  0.73140  Biso   1.000  C  0.028338
  C92      1.0000 0.57850  0.06520  0.23140  Biso   1.000  C  0.023931
  C93      1.0000 0.47380  0.50340  0.28620  Biso   1.000  C  -0.163952
  C94      1.0000 0.02620  0.49660  0.78620  Biso   1.000  C  -0.164026
  C95      1.0000 0.97380  0.99660  0.71380  Biso   1.000  C  -0.163971
  C96      1.0000 0.52620  0.00340  0.21380  Biso   1.000  C  -0.163365
  C97      1.0000 0.55380  0.48670  0.25850  Biso   1.000  C  0.079894
  C98      1.0000 0.94620  0.51330  0.75850  Biso   1.000  C  0.079858
  C99      1.0000 0.05380  0.01330  0.74150  Biso   1.000  C  0.079861
  C100     1.0000 0.44620  0.98670  0.24150  Biso   1.000  C  0.072162
  C101     1.0000 0.79180  0.51620  0.28690  Biso   1.000  C  0.533551
  C102     1.0000 0.70820  0.48380  0.78690  Biso   1.000  C  0.533535
  C103     1.0000 0.29180  0.98380  0.71310  Biso   1.000  C  0.533517
  C104     1.0000 0.20820  0.01620  0.21310  Biso   1.000  C  0.526946
  C105     1.0000 0.98360  0.71940  0.35340  Biso   1.000  C  0.526742
  C106     1.0000 0.51640  0.28060  0.85340  Biso   1.000  C  0.526739
  C107     1.0000 0.48360  0.78060  0.64660  Biso   1.000  C  0.526730
  C108     1.0000 0.01640  0.21940  0.14660  Biso   1.000  C  0.527041
  C109     1.0000 0.33350  0.57990  0.29650  Biso   1.000  C  0.581172
  C110     1.0000 0.16650  0.42010  0.79650  Biso   1.000  C  0.581010
  C111     1.0000 0.83350  0.92010  0.70350  Biso   1.000  C  0.581058
  C112     1.0000 0.66650  0.07990  0.20350  Biso   1.000  C  0.581556
  C113     1.0000 0.04620  0.63320  0.20990  Biso   1.000  C  0.521266
  C114     1.0000 0.45380  0.36680  0.70990  Biso   1.000  C  0.521274
  C115     1.0000 0.54620  0.86680  0.79010  Biso   1.000  C  0.521235
  C116     1.0000 0.95380  0.13320  0.29010  Biso   1.000  C  0.520629
  C117     1.0000 0.97370  0.38390  0.25500  Biso   1.000  C  0.542980
  C118     1.0000 0.52630  0.61610  0.75500  Biso   1.000  C  0.542886
  C119     1.0000 0.47370  0.11610  0.74500  Biso   1.000  C  0.542894
  C120     1.0000 0.02630  0.88390  0.24500  Biso   1.000  C  0.541609
  Co1      1.0000 0.29349  0.46289  0.89071  Biso   1.000  Co  0.856154
  Co2      1.0000 0.20651  0.53711  0.39071  Biso   1.000  Co  0.859284
  Co3      1.0000 0.79349  0.03711  0.10929  Biso   1.000  Co  0.856495
  Co4      1.0000 0.70651  0.96289  0.60929  Biso   1.000  Co  0.856462
  Co5      1.0000 0.16536  0.67268  0.30570  Biso   1.000  Co  1.020771
  Co6      1.0000 0.33464  0.32732  0.80570  Biso   1.000  Co  1.019677
  Co7      1.0000 0.66536  0.82732  0.69430  Biso   1.000  Co  1.019602
  Co8      1.0000 0.83464  0.17268  0.19430  Biso   1.000  Co  1.021614
  Co9      1.0000 0.98946  0.54278  0.31912  Biso   1.000  Co  1.074976
  Co10     1.0000 0.51054  0.45722  0.81912  Biso   1.000  Co  1.075068
  Co11     1.0000 0.48946  0.95722  0.68088  Biso   1.000  Co  1.074899
  Co12     1.0000 0.01054  0.04278  0.18088  Biso   1.000  Co  1.075557
  Co13     1.0000 0.70021  0.49673  0.17073  Biso   1.000  Co  0.849007
  Co14     1.0000 0.79979  0.50327  0.67073  Biso   1.000  Co  0.848994
  Co15     1.0000 0.20021  0.00327  0.82927  Biso   1.000  Co  0.848672
  Co16     1.0000 0.29979  0.99673  0.32927  Biso   1.000  Co  0.657842
  Co17     1.0000 0.90663  0.52073  0.18193  Biso   1.000  Co  1.017098
  Co18     1.0000 0.59337  0.47927  0.68193  Biso   1.000  Co  1.017034
  Co19     1.0000 0.40663  0.97927  0.81807  Biso   1.000  Co  1.016945
  Co20     1.0000 0.09337  0.02073  0.31807  Biso   1.000  Co  1.000391
  Co21     1.0000 0.87505  0.34796  0.14522  Biso   1.000  Co  1.044892
  Co22     1.0000 0.62495  0.65204  0.64522  Biso   1.000  Co  1.044987
  Co23     1.0000 0.37505  0.15204  0.85478  Biso   1.000  Co  1.045071
  Co24     1.0000 0.12495  0.84796  0.35478  Biso   1.000  Co  1.021211
  H1       1.0000 0.41720  0.60430  0.88710  Biso   1.000  H  0.098025
  H2       1.0000 0.08280  0.39570  0.38710  Biso   1.000  H  0.098037
  H3       1.0000 0.91720  0.89570  0.11290  Biso   1.000  H  0.098020
  H4       1.0000 0.58280  0.10430  0.61290  Biso   1.000  H  0.097946
  H5       1.0000 0.42080  0.74040  0.86820  Biso   1.000  H  0.138456
  H6       1.0000 0.07920  0.25960  0.36820  Biso   1.000  H  0.138594
  H7       1.0000 0.92080  0.75960  0.13180  Biso   1.000  H  0.138434
  H8       1.0000 0.57920  0.24040  0.63180  Biso   1.000  H  0.138412
  H9       1.0000 0.15580  0.74040  0.87020  Biso   1.000  H  0.127134
  H10      1.0000 0.34420  0.25960  0.37020  Biso   1.000  H  0.127085
  H11      1.0000 0.65580  0.75960  0.12980  Biso   1.000  H  0.127122
  H12      1.0000 0.84420  0.24040  0.62980  Biso   1.000  H  0.127130
  H13      1.0000 0.15850  0.60610  0.88340  Biso   1.000  H  0.090512
  H14      1.0000 0.34150  0.39390  0.38340  Biso   1.000  H  0.090460
  H15      1.0000 0.65850  0.89390  0.11660  Biso   1.000  H  0.090540
  H16      1.0000 0.84150  0.10610  0.61660  Biso   1.000  H  0.090531
  H17      1.0000 0.26000  0.54020  0.00450  Biso   1.000  H  0.086625
  H18      1.0000 0.24000  0.45980  0.50450  Biso   1.000  H  0.086593
  H19      1.0000 0.76000  0.95980  0.99550  Biso   1.000  H  0.086585
  H20      1.0000 0.74000  0.04020  0.49550  Biso   1.000  H  0.086451
  H21      1.0000 0.16110  0.53950  0.07560  Biso   1.000  H  0.133105
  H22      1.0000 0.33890  0.46050  0.57560  Biso   1.000  H  0.133051
  H23      1.0000 0.66110  0.96050  0.92440  Biso   1.000  H  0.133087
  H24      1.0000 0.83890  0.03950  0.42440  Biso   1.000  H  0.133090
  H25      1.0000 0.02310  0.37430  0.99590  Biso   1.000  H  0.134664
  H26      1.0000 0.47690  0.62570  0.49590  Biso   1.000  H  0.134638
  H27      1.0000 0.52310  0.12570  0.00410  Biso   1.000  H  0.134672
  H28      1.0000 0.97690  0.87430  0.50410  Biso   1.000  H  0.134607
  H29      1.0000 0.11980  0.38610  0.92350  Biso   1.000  H  0.096486
  H30      1.0000 0.38020  0.61390  0.42350  Biso   1.000  H  0.096567
  H31      1.0000 0.61980  0.11390  0.07650  Biso   1.000  H  0.096557
  H32      1.0000 0.88020  0.88610  0.57650  Biso   1.000  H  0.096374
  H33      1.0000 0.78210  0.19910  0.03740  Biso   1.000  H  0.033186
  H34      1.0000 0.71790  0.80090  0.53740  Biso   1.000  H  0.033178
  H35      1.0000 0.28210  0.30090  0.96260  Biso   1.000  H  0.033118
  H36      1.0000 0.21790  0.69910  0.46260  Biso   1.000  H  0.032758
  H37      1.0000 0.67630  0.27890  0.23160  Biso   1.000  H  0.024910
  H38      1.0000 0.82370  0.72110  0.73160  Biso   1.000  H  0.024818
  H39      1.0000 0.17630  0.22110  0.76840  Biso   1.000  H  0.024837
  H40      1.0000 0.32370  0.77890  0.26840  Biso   1.000  H  0.027593
  H41      1.0000 0.52980  0.41690  0.12230  Biso   1.000  H  0.083862
  H42      1.0000 0.97020  0.58310  0.62230  Biso   1.000  H  0.083829
  H43      1.0000 0.02980  0.08310  0.87770  Biso   1.000  H  0.083830
  H44      1.0000 0.47020  0.91690  0.37770  Biso   1.000  H  0.086793
  H45      1.0000 0.44670  0.41240  0.04350  Biso   1.000  H  0.127352
  H46      1.0000 0.05330  0.58760  0.54350  Biso   1.000  H  0.127425
  H47      1.0000 0.94670  0.08760  0.95650  Biso   1.000  H  0.127345
  H48      1.0000 0.55330  0.91240  0.45650  Biso   1.000  H  0.128364
  H49      1.0000 0.62500  0.54820  0.97130  Biso   1.000  H  0.136911
  H50      1.0000 0.87500  0.45180  0.47130  Biso   1.000  H  0.136962
  H51      1.0000 0.12500  0.95180  0.02870  Biso   1.000  H  0.136863
  H52      1.0000 0.37500  0.04820  0.52870  Biso   1.000  H  0.137748
  H53      1.0000 0.70070  0.55160  0.05380  Biso   1.000  H  0.085683
  H54      1.0000 0.79930  0.44840  0.55380  Biso   1.000  H  0.085702
  H55      1.0000 0.20070  0.94840  0.94620  Biso   1.000  H  0.085692
  H56      1.0000 0.29930  0.05160  0.44620  Biso   1.000  H  0.087784
  H57      1.0000 0.55540  0.62810  0.17580  Biso   1.000  H  0.095173
  H58      1.0000 0.94460  0.37190  0.67580  Biso   1.000  H  0.095204
  H59      1.0000 0.05540  0.87190  0.82420  Biso   1.000  H  0.095190
  H60      1.0000 0.44460  0.12810  0.32420  Biso   1.000  H  0.096912
  H61      1.0000 0.41710  0.65200  0.21180  Biso   1.000  H  0.131087
  H62      1.0000 0.08290  0.34800  0.71180  Biso   1.000  H  0.131119
  H63      1.0000 0.91710  0.84800  0.78820  Biso   1.000  H  0.131116
  H64      1.0000 0.58290  0.15200  0.28820  Biso   1.000  H  0.131566
  H65      1.0000 0.45660  0.47250  0.31630  Biso   1.000  H  0.128485
  H66      1.0000 0.04340  0.52750  0.81630  Biso   1.000  H  0.128444
  H67      1.0000 0.95660  0.02750  0.68370  Biso   1.000  H  0.128470
  H68      1.0000 0.54340  0.97250  0.18370  Biso   1.000  H  0.128959
  H69      1.0000 0.58730  0.44320  0.27030  Biso   1.000  H  0.089975
  H70      1.0000 0.91270  0.55680  0.77030  Biso   1.000  H  0.089957
  H71      1.0000 0.08730  0.05680  0.72970  Biso   1.000  H  0.089957
  H72      1.0000 0.41270  0.94320  0.22970  Biso   1.000  H  0.091599
  H73      1.0000 0.73590  0.50810  0.30200  Biso   1.000  H  0.010160
  H74      1.0000 0.76410  0.49190  0.80200  Biso   1.000  H  0.010116
  H75      1.0000 0.23590  0.99190  0.69800  Biso   1.000  H  0.010097
  H76      1.0000 0.26410  0.00810  0.19800  Biso   1.000  H  0.011706
  H77      1.0000 0.95000  0.75850  0.37090  Biso   1.000  H  0.034223
  H78      1.0000 0.55000  0.24150  0.87090  Biso   1.000  H  0.033716
  H79      1.0000 0.45000  0.74150  0.62910  Biso   1.000  H  0.033747
  H80      1.0000 0.05000  0.25850  0.12910  Biso   1.000  H  0.033800
  H81      1.0000 0.03420  0.64240  0.17280  Biso   1.000  H  0.036302
  H82      1.0000 0.46580  0.35760  0.67280  Biso   1.000  H  0.036248
  H83      1.0000 0.53420  0.85760  0.82720  Biso   1.000  H  0.036243
  H84      1.0000 0.96580  0.14240  0.32720  Biso   1.000  H  0.036339
  H85      1.0000 0.97820  0.32860  0.25890  Biso   1.000  H  0.025462
  H86      1.0000 0.52180  0.67140  0.75890  Biso   1.000  H  0.025325
  H87      1.0000 0.47820  0.17140  0.74110  Biso   1.000  H  0.025320
  H88      1.0000 0.02180  0.82860  0.24110  Biso   1.000  H  0.025668
  H89      1.0000 0.81730  0.47420  0.09560  Biso   1.000  H  0.386378
  H90      1.0000 0.68270  0.52580  0.59560  Biso   1.000  H  0.386446
  H91      1.0000 0.31730  0.02580  0.90440  Biso   1.000  H  0.386389
  H92      1.0000 0.18270  0.97420  0.40440  Biso   1.000  H  0.389380
  H93      1.0000 0.14950  0.52280  0.29280  Biso   1.000  H  0.388034
  H94      1.0000 0.35050  0.47720  0.79280  Biso   1.000  H  0.387964
  H95      1.0000 0.64950  0.97720  0.70720  Biso   1.000  H  0.387974
  H96      1.0000 0.85050  0.02280  0.20720  Biso   1.000  H  0.388336
  N1       1.0000 0.28800  0.59080  0.88494  Biso   1.000  N  -0.247280
  N2       1.0000 0.21200  0.40920  0.38494  Biso   1.000  N  -0.248551
  N3       1.0000 0.78800  0.90920  0.11506  Biso   1.000  N  -0.247257
  N4       1.0000 0.71200  0.09080  0.61506  Biso   1.000  N  -0.247344
  N5       1.0000 0.20170  0.46380  0.95726  Biso   1.000  N  -0.231369
  N6       1.0000 0.29830  0.53620  0.45726  Biso   1.000  N  -0.231389
  N7       1.0000 0.70170  0.03620  0.04274  Biso   1.000  N  -0.231418
  N8       1.0000 0.79830  0.96380  0.54274  Biso   1.000  N  -0.231951
  N9       1.0000 0.62150  0.48540  0.09704  Biso   1.000  N  -0.229874
  N10      1.0000 0.87850  0.51460  0.59704  Biso   1.000  N  -0.229957
  N11      1.0000 0.12150  0.01460  0.90296  Biso   1.000  N  -0.229815
  N12      1.0000 0.37850  0.98540  0.40296  Biso   1.000  N  -0.183681
  N13      1.0000 0.58360  0.52950  0.21678  Biso   1.000  N  -0.228488
  N14      1.0000 0.91640  0.47050  0.71678  Biso   1.000  N  -0.228420
  N15      1.0000 0.08360  0.97050  0.78322  Biso   1.000  N  -0.228417
  N16      1.0000 0.41640  0.02950  0.28322  Biso   1.000  N  -0.185963
  O1       1.0000 0.81459  0.45749  0.13435  Biso   1.000  O  -0.878131
  O2       1.0000 0.68541  0.54251  0.63435  Biso   1.000  O  -0.878120
  O3       1.0000 0.31459  0.04251  0.86565  Biso   1.000  O  -0.878193
  O4       1.0000 0.18541  0.95749  0.36565  Biso   1.000  O  -0.821243
  O5       1.0000 0.12537  0.55606  0.32251  Biso   1.000  O  -0.892136
  O6       1.0000 0.37463  0.44394  0.82251  Biso   1.000  O  -0.892072
  O7       1.0000 0.62537  0.94394  0.67749  Biso   1.000  O  -0.891946
  O8       1.0000 0.87463  0.05606  0.17749  Biso   1.000  O  -0.892416
  O9       1.0000 0.36780  0.87332  0.85088  Biso   1.000  O  -0.552835
  O10      1.0000 0.13220  0.12668  0.35088  Biso   1.000  O  -0.549100
  O11      1.0000 0.86780  0.62668  0.14912  Biso   1.000  O  -0.552840
  O12      1.0000 0.63220  0.37332  0.64912  Biso   1.000  O  -0.552795
  O13      1.0000 0.21970  0.88141  0.85061  Biso   1.000  O  -0.576112
  O14      1.0000 0.28030  0.11859  0.35061  Biso   1.000  O  -0.540238
  O15      1.0000 0.71970  0.61859  0.14939  Biso   1.000  O  -0.576086
  O16      1.0000 0.78030  0.38141  0.64939  Biso   1.000  O  -0.576111
  O17      1.0000 0.00600  0.50988  0.12103  Biso   1.000  O  -0.553917
  O18      1.0000 0.49400  0.49012  0.62103  Biso   1.000  O  -0.553957
  O19      1.0000 0.50600  0.99012  0.87897  Biso   1.000  O  -0.553852
  O20      1.0000 0.99400  0.00988  0.37897  Biso   1.000  O  -0.553220
  O21      1.0000 0.97520  0.38441  0.09366  Biso   1.000  O  -0.585769
  O22      1.0000 0.52480  0.61559  0.59366  Biso   1.000  O  -0.585686
  O23      1.0000 0.47520  0.11559  0.90634  Biso   1.000  O  -0.585697
  O24      1.0000 0.02480  0.88441  0.40634  Biso   1.000  O  -0.582761
  O25      1.0000 0.81960  0.28986  0.07693  Biso   1.000  O  -0.517364
  O26      1.0000 0.68040  0.71014  0.57693  Biso   1.000  O  -0.517504
  O27      1.0000 0.31960  0.21014  0.92307  Biso   1.000  O  -0.517559
  O28      1.0000 0.18040  0.78986  0.42307  Biso   1.000  O  -0.515575
  O29      1.0000 0.79140  0.16727  0.11154  Biso   1.000  O  -0.541737
  O30      1.0000 0.70860  0.83273  0.61154  Biso   1.000  O  -0.541899
  O31      1.0000 0.29140  0.33273  0.88846  Biso   1.000  O  -0.541815
  O32      1.0000 0.20860  0.66727  0.38846  Biso   1.000  O  -0.543959
  O33      1.0000 0.78590  0.29263  0.19896  Biso   1.000  O  -0.533626
  O34      1.0000 0.71410  0.70737  0.69896  Biso   1.000  O  -0.533250
  O35      1.0000 0.28590  0.20737  0.80104  Biso   1.000  O  -0.533328
  O36      1.0000 0.21410  0.79263  0.30104  Biso   1.000  O  -0.532243
  O37      1.0000 0.67330  0.37946  0.19963  Biso   1.000  O  -0.524093
  O38      1.0000 0.82670  0.62054  0.69963  Biso   1.000  O  -0.523996
  O39      1.0000 0.17330  0.12054  0.80037  Biso   1.000  O  -0.524029
  O40      1.0000 0.32670  0.87946  0.30037  Biso   1.000  O  -0.490391
  O41      1.0000 0.51878  0.49400  0.90197  Biso   1.000  O  -0.541832
  O42      1.0000 0.98122  0.50600  0.40197  Biso   1.000  O  -0.541779
  O43      1.0000 0.01878  0.00600  0.09803  Biso   1.000  O  -0.542024
  O44      1.0000 0.48122  0.99400  0.59803  Biso   1.000  O  -0.541855
  O45      1.0000 0.39480  0.45780  0.94777  Biso   1.000  O  -0.567607
  O46      1.0000 0.10520  0.54220  0.44777  Biso   1.000  O  -0.567635
  O47      1.0000 0.89480  0.04220  0.05223  Biso   1.000  O  -0.567522
  O48      1.0000 0.60520  0.95780  0.55223  Biso   1.000  O  -0.567338
  O49      1.0000 0.79503  0.52065  0.23572  Biso   1.000  O  -0.553040
  O50      1.0000 0.70497  0.47935  0.73572  Biso   1.000  O  -0.553097
  O51      1.0000 0.29503  0.97935  0.76428  Biso   1.000  O  -0.552942
  O52      1.0000 0.20497  0.02065  0.26428  Biso   1.000  O  -0.511059
  O53      1.0000 0.85230  0.52120  0.31925  Biso   1.000  O  -0.494322
  O54      1.0000 0.64770  0.47880  0.81925  Biso   1.000  O  -0.494494
  O55      1.0000 0.35230  0.97880  0.68075  Biso   1.000  O  -0.494581
  O56      1.0000 0.14770  0.02120  0.18075  Biso   1.000  O  -0.489114
  O57      1.0000 0.94960  0.65360  0.34908  Biso   1.000  O  -0.493762
  O58      1.0000 0.55040  0.34640  0.84908  Biso   1.000  O  -0.493436
  O59      1.0000 0.44960  0.84640  0.65092  Biso   1.000  O  -0.493604
  O60      1.0000 0.05040  0.15360  0.15092  Biso   1.000  O  -0.493451
  O61      1.0000 0.05970  0.74033  0.33679  Biso   1.000  O  -0.568793
  O62      1.0000 0.44030  0.25967  0.83679  Biso   1.000  O  -0.573515
  O63      1.0000 0.55970  0.75967  0.66321  Biso   1.000  O  -0.573495
  O64      1.0000 0.94030  0.24033  0.16321  Biso   1.000  O  -0.573180
  O65      1.0000 0.31672  0.53905  0.33762  Biso   1.000  O  -0.549369
  O66      1.0000 0.18328  0.46095  0.83762  Biso   1.000  O  -0.549017
  O67      1.0000 0.81672  0.96095  0.66238  Biso   1.000  O  -0.548936
  O68      1.0000 0.68328  0.03905  0.16238  Biso   1.000  O  -0.549380
  O69      1.0000 0.28540  0.63357  0.27427  Biso   1.000  O  -0.578442
  O70      1.0000 0.21460  0.36643  0.77427  Biso   1.000  O  -0.578530
  O71      1.0000 0.78540  0.86643  0.72573  Biso   1.000  O  -0.578519
  O72      1.0000 0.71460  0.13357  0.22573  Biso   1.000  O  -0.578530
  O73      1.0000 0.10850  0.67141  0.22945  Biso   1.000  O  -0.486962
  O74      1.0000 0.39150  0.32859  0.72945  Biso   1.000  O  -0.487352
  O75      1.0000 0.60850  0.82859  0.77055  Biso   1.000  O  -0.487377
  O76      1.0000 0.89150  0.17141  0.27055  Biso   1.000  O  -0.488874
  O77      1.0000 0.99540  0.58180  0.23417  Biso   1.000  O  -0.580497
  O78      1.0000 0.50460  0.41820  0.73417  Biso   1.000  O  -0.580610
  O79      1.0000 0.49540  0.91820  0.76583  Biso   1.000  O  -0.580590
  O80      1.0000 0.00460  0.08180  0.26583  Biso   1.000  O  -0.581366
  O81      1.0000 0.00370  0.42418  0.29357  Biso   1.000  O  -0.524862
  O82      1.0000 0.49630  0.57582  0.79357  Biso   1.000  O  -0.524925
  O83      1.0000 0.50370  0.07582  0.70643  Biso   1.000  O  -0.525048
  O84      1.0000 0.99630  0.92418  0.20643  Biso   1.000  O  -0.526577
  O85      1.0000 0.93840  0.40806  0.21183  Biso   1.000  O  -0.555823
  O86      1.0000 0.56160  0.59194  0.71183  Biso   1.000  O  -0.555765
  O87      1.0000 0.43840  0.09194  0.78817  Biso   1.000  O  -0.555762
  O88      1.0000 0.06160  0.90806  0.28817  Biso   1.000  O  -0.553838
