
##########################################################################
#               Crystallographic Information Format file
#               Produced by PyCifRW module
#
#  This is a CIF file.  CIF has been adopted by the International
#  Union of Crystallography as the standard for data archiving and
#  transmission.
#
#  For information on this file format, follow the CIF links at
#  http://www.iucr.org
##########################################################################

data_image0

_cell_length_a                          13.2529
_cell_length_b                          13.253
_cell_length_c                          13.995
_cell_angle_alpha                       90
_cell_angle_beta                        90
_cell_angle_gamma                       90
_symmetry_space_group_name_H-M          'P 1'
_symmetry_int_tables_number             1
loop_
  _symmetry_equiv_pos_as_xyz
         'x, y, z' 
loop_
  _atom_site_label
  _atom_site_occupancy
  _atom_site_fract_x
  _atom_site_fract_y
  _atom_site_fract_z
  _atom_site_thermal_displace_type
  _atom_site_B_iso_or_equiv
  _atom_site_type_symbol
  _atom_site_charge
         C1        1.0000    0.04240   0.78530   0.68650   Biso      1.000     C          -0.025285           
         C2        1.0000    0.81410   0.02480   0.57750   Biso      1.000     C          -0.032985           
         C3        1.0000    0.57770   0.00280   0.58430   Biso      1.000     C          -0.122475           
         C4        1.0000    0.75160   0.99800   0.92590   Biso      1.000     C          -0.022734           
         C5        1.0000    0.95760   0.78530   0.81350   Biso      1.000     C          -0.035716           
         C6        1.0000    0.97190   0.55370   0.82320   Biso      1.000     C          -0.125751           
         C7        1.0000    0.96920   0.44970   0.83010   Biso      1.000     C          -0.14627  
         C8        1.0000    0.52380   0.00290   0.91260   Biso      1.000     C          -0.145442           
         C9        1.0000    0.42230   0.00280   0.91570   Biso      1.000     C          -0.11908  
         C10       1.0000    0.18590   0.02480   0.92250   Biso      1.000     C          -0.050283           
         C11       1.0000    0.02930   0.22290   0.67480   Biso      1.000     C          -0.092187           
         C12       1.0000    0.97070   0.22290   0.82520   Biso      1.000     C          -0.0935   
         C13       1.0000    0.04240   0.21470   0.31350   Biso      1.000     C          -0.028569           
         C14       1.0000    0.02810   0.44630   0.32320   Biso      1.000     C          -0.126417           
         C15       1.0000    0.03080   0.55030   0.33010   Biso      1.000     C          -0.141811           
         C16       1.0000    0.47620   0.99710   0.41260   Biso      1.000     C          -0.146192           
         C17       1.0000    0.57770   0.99720   0.41570   Biso      1.000     C          -0.121189           
         C18       1.0000    0.81410   0.97520   0.42250   Biso      1.000     C          -0.028331           
         C19       1.0000    0.02930   0.77710   0.32520   Biso      1.000     C          -0.120803           
         C20       1.0000    0.24840   0.99800   0.57410   Biso      1.000     C          -0.020633           
         C21       1.0000    0.47620   0.00290   0.58740   Biso      1.000     C          -0.146433           
         C22       1.0000    0.24840   0.00200   0.42590   Biso      1.000     C          -0.029049           
         C23       1.0000    0.75160   0.00200   0.07410   Biso      1.000     C          -0.024254           
         C24       1.0000    0.95760   0.21470   0.18650   Biso      1.000     C          -0.024544           
         C25       1.0000    0.97190   0.44630   0.17680   Biso      1.000     C          -0.126934           
         C26       1.0000    0.74540   0.00000   0.50000   Biso      1.000     C          -0.071342           
         C27       1.0000    0.63370   0.00000   0.50000   Biso      1.000     C          0.111438  
         C28       1.0000    0.42410   0.00000   0.50000   Biso      1.000     C          0.094451  
         C29       1.0000    0.31210   0.00000   0.50000   Biso      1.000     C          -0.024559           
         C30       1.0000    0.25460   0.00000   0.00000   Biso      1.000     C          -0.063366           
         C31       1.0000    0.36630   0.00000   0.00000   Biso      1.000     C          0.114808  
         C32       1.0000    0.57590   0.00000   0.00000   Biso      1.000     C          0.096752  
         C33       1.0000    0.68790   0.00000   0.00000   Biso      1.000     C          -0.023893           
         C34       1.0000    0.00000   0.71200   0.25000   Biso      1.000     C          -0.005787           
         C35       1.0000    0.00000   0.60680   0.25000   Biso      1.000     C          0.137566  
         C36       1.0000    0.00000   0.38000   0.25000   Biso      1.000     C          0.101171  
         C37       1.0000    0.00000   0.27980   0.25000   Biso      1.000     C          0.004127  
         C38       1.0000    0.00000   0.28800   0.75000   Biso      1.000     C          -0.017433           
         C39       1.0000    0.00000   0.39320   0.75000   Biso      1.000     C          0.131228  
         C40       1.0000    0.00000   0.62000   0.75000   Biso      1.000     C          0.09828   
         C41       1.0000    0.00000   0.72020   0.75000   Biso      1.000     C          0.000953  
         C42       1.0000    0.97070   0.77710   0.17480   Biso      1.000     C          -0.121692           
         C43       1.0000    0.18590   0.97520   0.07750   Biso      1.000     C          -0.045941           
         C44       1.0000    0.42230   0.99720   0.08430   Biso      1.000     C          -0.11911  
         C45       1.0000    0.52380   0.99710   0.08740   Biso      1.000     C          -0.145575           
         C46       1.0000    0.96920   0.55030   0.16990   Biso      1.000     C          -0.142027           
         C47       1.0000    0.02810   0.55370   0.67680   Biso      1.000     C          -0.12912  
         C48       1.0000    0.03080   0.44970   0.66990   Biso      1.000     C          -0.146712           
         Co1       1.0000    0.97058   0.00258   0.87270   Biso      1.000     Co          0.644371  
         Co2       1.0000    0.02942   0.99742   0.37270   Biso      1.000     Co          0.648751  
         Co3       1.0000    0.02942   0.00258   0.62730   Biso      1.000     Co          0.567046  
         Co4       1.0000    0.97058   0.99742   0.12730   Biso      1.000     Co          0.6392    
         H1        1.0000    0.38660   0.99530   0.14310   Biso      1.000     H          0.103051  
         H2        1.0000    0.72940   0.99770   0.86140   Biso      1.000     H          0.107171  
         H3        1.0000    0.91920   0.76510   0.86750   Biso      1.000     H          0.113103  
         H4        1.0000    0.94740   0.41740   0.88710   Biso      1.000     H          0.121844  
         H5        1.0000    0.55890   0.00480   0.85340   Biso      1.000     H          0.123309  
         H6        1.0000    0.38660   0.00470   0.85690   Biso      1.000     H          0.103269  
         H7        1.0000    0.27060   0.00230   0.36140   Biso      1.000     H          0.10728   
         H8        1.0000    0.08080   0.23490   0.36750   Biso      1.000     H          0.113323  
         H9        1.0000    0.04980   0.41300   0.37970   Biso      1.000     H          0.085675  
         H10       1.0000    0.05260   0.58260   0.38710   Biso      1.000     H          0.122337  
         H11       1.0000    0.95020   0.58700   0.87970   Biso      1.000     H          0.085011  
         H12       1.0000    0.61340   0.99530   0.35690   Biso      1.000     H          0.102065  
         H13       1.0000    0.44110   0.99520   0.35340   Biso      1.000     H          0.123092  
         H14       1.0000    0.55890   0.99520   0.14660   Biso      1.000     H          0.123495  
         H15       1.0000    0.94740   0.58260   0.11290   Biso      1.000     H          0.122387  
         H16       1.0000    0.95020   0.41300   0.12030   Biso      1.000     H          0.085259  
         H17       1.0000    0.72940   0.00230   0.13860   Biso      1.000     H          0.10737   
         H18       1.0000    0.91920   0.23490   0.13250   Biso      1.000     H          0.112971  
         H19       1.0000    0.44110   0.00480   0.64660   Biso      1.000     H          0.122797  
         H20       1.0000    0.05260   0.41740   0.61290   Biso      1.000     H          0.121269  
         H21       1.0000    0.04980   0.58700   0.62030   Biso      1.000     H          0.08503   
         H22       1.0000    0.08080   0.76510   0.63250   Biso      1.000     H          0.112954  
         H23       1.0000    0.27060   0.99770   0.63860   Biso      1.000     H          0.107142  
         H24       1.0000    0.61340   0.00470   0.64310   Biso      1.000     H          0.102515  
         N1        1.0000    0.84790   0.00520   0.05020   Biso      1.000     N          -0.183449           
         N2        1.0000    0.02390   0.87710   0.70870   Biso      1.000     N          -0.145616           
         N3        1.0000    0.97610   0.12290   0.20870   Biso      1.000     N          -0.165252           
         N4        1.0000    0.02270   0.12130   0.70690   Biso      1.000     N          -0.162893           
         N5        1.0000    0.90530   0.01930   0.54640   Biso      1.000     N          -0.162576           
         N6        1.0000    0.15210   0.99480   0.55020   Biso      1.000     N          -0.170133           
         N7        1.0000    0.02270   0.87870   0.29310   Biso      1.000     N          -0.190581           
         N8        1.0000    0.84790   0.99480   0.94980   Biso      1.000     N          -0.183853           
         N9        1.0000    0.15210   0.00520   0.44980   Biso      1.000     N          -0.188532           
         N10       1.0000    0.02390   0.12290   0.29130   Biso      1.000     N          -0.163655           
         N11       1.0000    0.97730   0.12130   0.79310   Biso      1.000     N          -0.193546           
         N12       1.0000    0.09470   0.01930   0.95360   Biso      1.000     N          -0.192538           
         N13       1.0000    0.97610   0.87710   0.79130   Biso      1.000     N          -0.170715           
         N14       1.0000    0.09470   0.98070   0.04640   Biso      1.000     N          -0.191457           
         N15       1.0000    0.90530   0.98070   0.45360   Biso      1.000     N          -0.199682           
         N16       1.0000    0.97730   0.87870   0.20690   Biso      1.000     N          -0.18596 