data_image0
_cell_length_a       15.5094
_cell_length_b       17.8251
_cell_length_c       24.221
_cell_angle_alpha    90
_cell_angle_beta     90
_cell_angle_gamma    90

_symmetry_space_group_name_H-M    "P 1"
_symmetry_int_tables_number       1

loop_
  _symmetry_equiv_pos_as_xyz
  'x, y, z'

loop_
  _atom_site_label
  _atom_site_occupancy
  _atom_site_fract_x
  _atom_site_fract_y
  _atom_site_fract_z
  _atom_site_thermal_displace_type
  _atom_site_B_iso_or_equiv
  _atom_site_type_symbol
  _atom_site_charge
  C1       1.0000 0.07830  0.76820  0.91063  Biso   1.000  C  0.567575
  C2       1.0000 0.05970  0.82707  0.86768  Biso   1.000  C  -0.015513
  C3       1.0000 0.11420  0.88610  0.85800  Biso   1.000  C  -0.098115
  C4       1.0000 0.09620  0.93870  0.81886  Biso   1.000  C  -0.148266
  C5       1.0000 0.02220  0.93501  0.78616  Biso   1.000  C  0.088277
  C6       1.0000 0.96740  0.87630  0.79607  Biso   1.000  C  -0.159198
  C7       1.0000 0.98580  0.82210  0.83546  Biso   1.000  C  -0.090647
  C8       1.0000 0.74360  0.91820  0.58002  Biso   1.000  C  0.616505
  C9       1.0000 0.80630  0.93980  0.62497  Biso   1.000  C  -0.022189
  C10      1.0000 0.87510  0.89600  0.63533  Biso   1.000  C  -0.098207
  C11      1.0000 0.93490  0.91449  0.67426  Biso   1.000  C  -0.138991
  C12      1.0000 0.92650  0.97818  0.70650  Biso   1.000  C  0.089639
  C13      1.0000 0.85510  0.02400  0.69548  Biso   1.000  C  -0.155833
  C14      1.0000 0.79680  0.00620  0.65373  Biso   1.000  C  -0.089691
  C15      1.0000 0.92170  0.23180  0.91063  Biso   1.000  C  0.570533
  C16      1.0000 0.94030  0.17293  0.86768  Biso   1.000  C  -0.016060
  C17      1.0000 0.88580  0.11390  0.85800  Biso   1.000  C  -0.098218
  C18      1.0000 0.90380  0.06130  0.81886  Biso   1.000  C  -0.148413
  C19      1.0000 0.97780  0.06499  0.78616  Biso   1.000  C  0.088547
  C20      1.0000 0.03260  0.12370  0.79607  Biso   1.000  C  -0.158941
  C21      1.0000 0.01420  0.17790  0.83546  Biso   1.000  C  -0.090062
  C22      1.0000 0.25640  0.08180  0.58002  Biso   1.000  C  0.621931
  C23      1.0000 0.19370  0.06020  0.62497  Biso   1.000  C  -0.023265
  C24      1.0000 0.12490  0.10400  0.63533  Biso   1.000  C  -0.095415
  C25      1.0000 0.06510  0.08551  0.67426  Biso   1.000  C  -0.139613
  C26      1.0000 0.07350  0.02182  0.70650  Biso   1.000  C  0.090087
  C27      1.0000 0.14490  0.97600  0.69548  Biso   1.000  C  -0.156098
  C28      1.0000 0.20320  0.99380  0.65373  Biso   1.000  C  -0.091139
  C29      1.0000 0.42170  0.26820  0.58937  Biso   1.000  C  0.577533
  C30      1.0000 0.44030  0.32707  0.63232  Biso   1.000  C  -0.017712
  C31      1.0000 0.38580  0.38610  0.64200  Biso   1.000  C  -0.095725
  C32      1.0000 0.40380  0.43870  0.68114  Biso   1.000  C  -0.149901
  C33      1.0000 0.47780  0.43501  0.71384  Biso   1.000  C  0.088112
  C34      1.0000 0.53260  0.37630  0.70393  Biso   1.000  C  -0.160283
  C35      1.0000 0.51420  0.32210  0.66454  Biso   1.000  C  -0.091527
  C36      1.0000 0.75640  0.41820  0.91998  Biso   1.000  C  0.624301
  C37      1.0000 0.69370  0.43980  0.87503  Biso   1.000  C  -0.022213
  C38      1.0000 0.62490  0.39600  0.86467  Biso   1.000  C  -0.099111
  C39      1.0000 0.56510  0.41449  0.82574  Biso   1.000  C  -0.138532
  C40      1.0000 0.57350  0.47818  0.79350  Biso   1.000  C  0.090689
  C41      1.0000 0.64490  0.52400  0.80452  Biso   1.000  C  -0.156773
  C42      1.0000 0.70320  0.50620  0.84627  Biso   1.000  C  -0.087893
  C43      1.0000 0.57830  0.73180  0.58937  Biso   1.000  C  0.571616
  C44      1.0000 0.55970  0.67293  0.63232  Biso   1.000  C  -0.013334
  C45      1.0000 0.61420  0.61390  0.64200  Biso   1.000  C  -0.098619
  C46      1.0000 0.59620  0.56130  0.68114  Biso   1.000  C  -0.147735
  C47      1.0000 0.52220  0.56499  0.71384  Biso   1.000  C  0.089601
  C48      1.0000 0.46740  0.62370  0.70393  Biso   1.000  C  -0.158621
  C49      1.0000 0.48580  0.67790  0.66454  Biso   1.000  C  -0.089765
  C50      1.0000 0.24360  0.58180  0.91998  Biso   1.000  C  0.621495
  C51      1.0000 0.30630  0.56020  0.87503  Biso   1.000  C  -0.023168
  C52      1.0000 0.37510  0.60400  0.86467  Biso   1.000  C  -0.099008
  C53      1.0000 0.43490  0.58551  0.82574  Biso   1.000  C  -0.139689
  C54      1.0000 0.42650  0.52182  0.79350  Biso   1.000  C  0.089543
  C55      1.0000 0.35510  0.47600  0.80452  Biso   1.000  C  -0.156840
  C56      1.0000 0.29680  0.49380  0.84627  Biso   1.000  C  -0.087748
  C57      1.0000 0.92170  0.23180  0.08937  Biso   1.000  C  0.570547
  C58      1.0000 0.94030  0.17293  0.13232  Biso   1.000  C  -0.016067
  C59      1.0000 0.88580  0.11390  0.14200  Biso   1.000  C  -0.098213
  C60      1.0000 0.90380  0.06130  0.18114  Biso   1.000  C  -0.148411
  C61      1.0000 0.97780  0.06499  0.21384  Biso   1.000  C  0.088548
  C62      1.0000 0.03260  0.12370  0.20393  Biso   1.000  C  -0.158939
  C63      1.0000 0.01420  0.17790  0.16454  Biso   1.000  C  -0.090059
  C64      1.0000 0.25640  0.08180  0.41998  Biso   1.000  C  0.621923
  C65      1.0000 0.19370  0.06020  0.37503  Biso   1.000  C  -0.023266
  C66      1.0000 0.12490  0.10400  0.36467  Biso   1.000  C  -0.095413
  C67      1.0000 0.06510  0.08551  0.32574  Biso   1.000  C  -0.139615
  C68      1.0000 0.07350  0.02182  0.29350  Biso   1.000  C  0.090088
  C69      1.0000 0.14490  0.97600  0.30452  Biso   1.000  C  -0.156100
  C70      1.0000 0.20320  0.99380  0.34627  Biso   1.000  C  -0.091140
  C71      1.0000 0.07830  0.76820  0.08937  Biso   1.000  C  0.567602
  C72      1.0000 0.05970  0.82707  0.13232  Biso   1.000  C  -0.015537
  C73      1.0000 0.11420  0.88610  0.14200  Biso   1.000  C  -0.098107
  C74      1.0000 0.09620  0.93870  0.18114  Biso   1.000  C  -0.148267
  C75      1.0000 0.02220  0.93501  0.21384  Biso   1.000  C  0.088281
  C76      1.0000 0.96740  0.87630  0.20393  Biso   1.000  C  -0.159197
  C77      1.0000 0.98580  0.82210  0.16454  Biso   1.000  C  -0.090643
  C78      1.0000 0.74360  0.91820  0.41998  Biso   1.000  C  0.616519
  C79      1.0000 0.80630  0.93980  0.37503  Biso   1.000  C  -0.022200
  C80      1.0000 0.87510  0.89600  0.36467  Biso   1.000  C  -0.098197
  C81      1.0000 0.93490  0.91449  0.32574  Biso   1.000  C  -0.138993
  C82      1.0000 0.92650  0.97818  0.29350  Biso   1.000  C  0.089637
  C83      1.0000 0.85510  0.02400  0.30452  Biso   1.000  C  -0.155833
  C84      1.0000 0.79680  0.00620  0.34627  Biso   1.000  C  -0.089689
  C85      1.0000 0.57830  0.73180  0.41063  Biso   1.000  C  0.571575
  C86      1.0000 0.55970  0.67293  0.36768  Biso   1.000  C  -0.013307
  C87      1.0000 0.61420  0.61390  0.35800  Biso   1.000  C  -0.098635
  C88      1.0000 0.59620  0.56130  0.31886  Biso   1.000  C  -0.147733
  C89      1.0000 0.52220  0.56499  0.28616  Biso   1.000  C  0.089579
  C90      1.0000 0.46740  0.62370  0.29607  Biso   1.000  C  -0.158623
  C91      1.0000 0.48580  0.67790  0.33546  Biso   1.000  C  -0.089769
  C92      1.0000 0.24360  0.58180  0.08002  Biso   1.000  C  0.621525
  C93      1.0000 0.30630  0.56020  0.12497  Biso   1.000  C  -0.023168
  C94      1.0000 0.37510  0.60400  0.13533  Biso   1.000  C  -0.099007
  C95      1.0000 0.43490  0.58551  0.17426  Biso   1.000  C  -0.139687
  C96      1.0000 0.42650  0.52182  0.20650  Biso   1.000  C  0.089549
  C97      1.0000 0.35510  0.47600  0.19548  Biso   1.000  C  -0.156842
  C98      1.0000 0.29680  0.49380  0.15373  Biso   1.000  C  -0.087749
  C99      1.0000 0.42170  0.26820  0.41063  Biso   1.000  C  0.577571
  C100     1.0000 0.44030  0.32707  0.36768  Biso   1.000  C  -0.017711
  C101     1.0000 0.38580  0.38610  0.35800  Biso   1.000  C  -0.095716
  C102     1.0000 0.40380  0.43870  0.31886  Biso   1.000  C  -0.149897
  C103     1.0000 0.47780  0.43501  0.28616  Biso   1.000  C  0.088119
  C104     1.0000 0.53260  0.37630  0.29607  Biso   1.000  C  -0.160279
  C105     1.0000 0.51420  0.32210  0.33546  Biso   1.000  C  -0.091526
  C106     1.0000 0.75640  0.41820  0.08002  Biso   1.000  C  0.624279
  C107     1.0000 0.69370  0.43980  0.12497  Biso   1.000  C  -0.022207
  C108     1.0000 0.62490  0.39600  0.13533  Biso   1.000  C  -0.099116
  C109     1.0000 0.56510  0.41449  0.17426  Biso   1.000  C  -0.138531
  C110     1.0000 0.57350  0.47818  0.20650  Biso   1.000  C  0.090686
  C111     1.0000 0.64490  0.52400  0.19548  Biso   1.000  C  -0.156766
  C112     1.0000 0.70320  0.50620  0.15373  Biso   1.000  C  -0.087896
  C113     1.0000 0.00000  0.00000  0.74632  Biso   1.000  C  -0.029192
  C114     1.0000 0.50000  0.50000  0.75368  Biso   1.000  C  -0.029346
  C115     1.0000 0.00000  0.00000  0.25368  Biso   1.000  C  -0.029193
  C116     1.0000 0.50000  0.50000  0.24632  Biso   1.000  C  -0.029343
  Co1      1.0000 0.19555  0.70863  0.00000  Biso   1.000  Co  0.982015
  Co2      1.0000 0.80445  0.29137  0.00000  Biso   1.000  Co  1.050829
  Co3      1.0000 0.30445  0.20863  0.50000  Biso   1.000  Co  1.125920
  Co4      1.0000 0.69555  0.79137  0.50000  Biso   1.000  Co  1.013340
  Co5      1.0000 0.60668  0.97493  0.50000  Biso   1.000  Co  0.926672
  Co6      1.0000 0.39332  0.02507  0.50000  Biso   1.000  Co  0.941763
  Co7      1.0000 0.89332  0.47493  0.00000  Biso   1.000  Co  1.090257
  Co8      1.0000 0.10668  0.52507  0.00000  Biso   1.000  Co  1.087404
  H1       1.0000 0.16460  0.89030  0.87860  Biso   1.000  H  0.119247
  H2       1.0000 0.13430  0.97840  0.81380  Biso   1.000  H  0.114960
  H3       1.0000 0.91660  0.87270  0.77590  Biso   1.000  H  0.112832
  H4       1.0000 0.94820  0.78200  0.84040  Biso   1.000  H  0.117872
  H5       1.0000 0.88200  0.85190  0.61530  Biso   1.000  H  0.119284
  H6       1.0000 0.98260  0.88350  0.67930  Biso   1.000  H  0.114359
  H7       1.0000 0.84650  0.06710  0.71640  Biso   1.000  H  0.115133
  H8       1.0000 0.75180  0.03880  0.64530  Biso   1.000  H  0.128239
  H9       1.0000 0.83540  0.10970  0.87860  Biso   1.000  H  0.119098
  H10      1.0000 0.86570  0.02160  0.81380  Biso   1.000  H  0.114885
  H11      1.0000 0.08340  0.12730  0.77590  Biso   1.000  H  0.113025
  H12      1.0000 0.05180  0.21800  0.84040  Biso   1.000  H  0.118001
  H13      1.0000 0.11800  0.14810  0.61530  Biso   1.000  H  0.119365
  H14      1.0000 0.01740  0.11650  0.67930  Biso   1.000  H  0.114417
  H15      1.0000 0.15350  0.93290  0.71640  Biso   1.000  H  0.114745
  H16      1.0000 0.24820  0.96120  0.64530  Biso   1.000  H  0.127714
  H17      1.0000 0.33540  0.39030  0.62140  Biso   1.000  H  0.118626
  H18      1.0000 0.36570  0.47840  0.68620  Biso   1.000  H  0.114535
  H19      1.0000 0.58340  0.37270  0.72410  Biso   1.000  H  0.112021
  H20      1.0000 0.55180  0.28200  0.65960  Biso   1.000  H  0.117215
  H21      1.0000 0.61800  0.35190  0.88470  Biso   1.000  H  0.118870
  H22      1.0000 0.51740  0.38350  0.82070  Biso   1.000  H  0.114267
  H23      1.0000 0.65350  0.56710  0.78360  Biso   1.000  H  0.114977
  H24      1.0000 0.74820  0.53880  0.85470  Biso   1.000  H  0.128196
  H25      1.0000 0.66460  0.60970  0.62140  Biso   1.000  H  0.119416
  H26      1.0000 0.63430  0.52160  0.68620  Biso   1.000  H  0.115270
  H27      1.0000 0.41660  0.62730  0.72410  Biso   1.000  H  0.113326
  H28      1.0000 0.44820  0.71800  0.65960  Biso   1.000  H  0.118200
  H29      1.0000 0.38200  0.64810  0.88470  Biso   1.000  H  0.118925
  H30      1.0000 0.48260  0.61650  0.82070  Biso   1.000  H  0.113729
  H31      1.0000 0.34650  0.43290  0.78360  Biso   1.000  H  0.115023
  H32      1.0000 0.25180  0.46120  0.85470  Biso   1.000  H  0.128043
  H33      1.0000 0.83540  0.10970  0.12140  Biso   1.000  H  0.119096
  H34      1.0000 0.86570  0.02160  0.18620  Biso   1.000  H  0.114886
  H35      1.0000 0.08340  0.12730  0.22410  Biso   1.000  H  0.113025
  H36      1.0000 0.05180  0.21800  0.15960  Biso   1.000  H  0.118004
  H37      1.0000 0.11800  0.14810  0.38470  Biso   1.000  H  0.119361
  H38      1.0000 0.01740  0.11650  0.32070  Biso   1.000  H  0.114415
  H39      1.0000 0.15350  0.93290  0.28360  Biso   1.000  H  0.114744
  H40      1.0000 0.24820  0.96120  0.35470  Biso   1.000  H  0.127714
  H41      1.0000 0.16460  0.89030  0.12140  Biso   1.000  H  0.119240
  H42      1.0000 0.13430  0.97840  0.18620  Biso   1.000  H  0.114957
  H43      1.0000 0.91660  0.87270  0.22410  Biso   1.000  H  0.112831
  H44      1.0000 0.94820  0.78200  0.15960  Biso   1.000  H  0.117868
  H45      1.0000 0.88200  0.85190  0.38470  Biso   1.000  H  0.119288
  H46      1.0000 0.98260  0.88350  0.32070  Biso   1.000  H  0.114359
  H47      1.0000 0.84650  0.06710  0.28360  Biso   1.000  H  0.115130
  H48      1.0000 0.75180  0.03880  0.35470  Biso   1.000  H  0.128233
  H49      1.0000 0.66460  0.60970  0.37860  Biso   1.000  H  0.119416
  H50      1.0000 0.63430  0.52160  0.31380  Biso   1.000  H  0.115268
  H51      1.0000 0.41660  0.62730  0.27590  Biso   1.000  H  0.113325
  H52      1.0000 0.44820  0.71800  0.34040  Biso   1.000  H  0.118200
  H53      1.0000 0.38200  0.64810  0.11530  Biso   1.000  H  0.118925
  H54      1.0000 0.48260  0.61650  0.17930  Biso   1.000  H  0.113730
  H55      1.0000 0.34650  0.43290  0.21640  Biso   1.000  H  0.115022
  H56      1.0000 0.25180  0.46120  0.14530  Biso   1.000  H  0.128045
  H57      1.0000 0.33540  0.39030  0.37860  Biso   1.000  H  0.118628
  H58      1.0000 0.36570  0.47840  0.31380  Biso   1.000  H  0.114537
  H59      1.0000 0.58340  0.37270  0.27590  Biso   1.000  H  0.112021
  H60      1.0000 0.55180  0.28200  0.34040  Biso   1.000  H  0.117212
  H61      1.0000 0.61800  0.35190  0.11530  Biso   1.000  H  0.118869
  H62      1.0000 0.51740  0.38350  0.17930  Biso   1.000  H  0.114267
  H63      1.0000 0.65350  0.56710  0.21640  Biso   1.000  H  0.114980
  H64      1.0000 0.74820  0.53880  0.14530  Biso   1.000  H  0.128197
  O1       1.0000 0.14429  0.77842  0.93958  Biso   1.000  O  -0.480755
  O2       1.0000 0.02770  0.71431  0.91503  Biso   1.000  O  -0.387533
  O3       1.0000 0.75175  0.85391  0.56100  Biso   1.000  O  -0.507129
  O4       1.0000 0.68850  0.96638  0.56595  Biso   1.000  O  -0.482973
  O5       1.0000 0.85571  0.22158  0.93958  Biso   1.000  O  -0.491880
  O6       1.0000 0.97230  0.28569  0.91503  Biso   1.000  O  -0.391945
  O7       1.0000 0.24825  0.14609  0.56100  Biso   1.000  O  -0.544373
  O8       1.0000 0.31150  0.03362  0.56595  Biso   1.000  O  -0.474403
  O9       1.0000 0.35571  0.27842  0.56042  Biso   1.000  O  -0.529814
  O10      1.0000 0.47230  0.21431  0.58497  Biso   1.000  O  -0.395297
  O11      1.0000 0.74825  0.35391  0.93900  Biso   1.000  O  -0.513755
  O12      1.0000 0.81150  0.46638  0.93405  Biso   1.000  O  -0.524184
  O13      1.0000 0.64429  0.72158  0.56042  Biso   1.000  O  -0.484870
  O14      1.0000 0.52770  0.78569  0.58497  Biso   1.000  O  -0.401533
  O15      1.0000 0.25175  0.64609  0.93900  Biso   1.000  O  -0.502162
  O16      1.0000 0.18850  0.53362  0.93405  Biso   1.000  O  -0.524533
  O17      1.0000 0.85571  0.22158  0.06042  Biso   1.000  O  -0.491892
  O18      1.0000 0.97230  0.28569  0.08497  Biso   1.000  O  -0.391908
  O19      1.0000 0.24825  0.14609  0.43900  Biso   1.000  O  -0.544371
  O20      1.0000 0.31150  0.03362  0.43405  Biso   1.000  O  -0.474395
  O21      1.0000 0.14429  0.77842  0.06042  Biso   1.000  O  -0.480748
  O22      1.0000 0.02770  0.71431  0.08497  Biso   1.000  O  -0.387532
  O23      1.0000 0.75175  0.85391  0.43900  Biso   1.000  O  -0.507167
  O24      1.0000 0.68850  0.96638  0.43405  Biso   1.000  O  -0.482951
  O25      1.0000 0.64429  0.72158  0.43958  Biso   1.000  O  -0.484883
  O26      1.0000 0.52770  0.78569  0.41503  Biso   1.000  O  -0.401578
  O27      1.0000 0.25175  0.64609  0.06100  Biso   1.000  O  -0.502179
  O28      1.0000 0.18850  0.53362  0.06595  Biso   1.000  O  -0.524554
  O29      1.0000 0.35571  0.27842  0.43958  Biso   1.000  O  -0.529852
  O30      1.0000 0.47230  0.21431  0.41503  Biso   1.000  O  -0.395293
  O31      1.0000 0.74825  0.35391  0.06100  Biso   1.000  O  -0.513700
  O32      1.0000 0.81150  0.46638  0.06595  Biso   1.000  O  -0.524187
  O33      1.0000 0.07720  0.63869  0.00000  Biso   1.000  O  -0.395826
  O34      1.0000 0.92280  0.36131  0.00000  Biso   1.000  O  -0.412836
  O35      1.0000 0.42280  0.13869  0.50000  Biso   1.000  O  -0.388073
  O36      1.0000 0.57720  0.86131  0.50000  Biso   1.000  O  -0.374335
  O37      1.0000 0.50000  0.00000  0.55802  Biso   1.000  O  -0.366550
  O38      1.0000 0.00000  0.50000  0.94198  Biso   1.000  O  -0.443065
  O39      1.0000 0.50000  0.00000  0.44198  Biso   1.000  O  -0.366570
  O40      1.0000 0.00000  0.50000  0.05802  Biso   1.000  O  -0.443033
