data_image0
_cell_length_a       13.4641
_cell_length_b       13.4641
_cell_length_c       23.3751
_cell_angle_alpha    90
_cell_angle_beta     90
_cell_angle_gamma    90

_symmetry_space_group_name_H-M    "P 1"
_symmetry_int_tables_number       1

loop_
  _symmetry_equiv_pos_as_xyz
  'x, y, z'

loop_
  _atom_site_label
  _atom_site_occupancy
  _atom_site_fract_x
  _atom_site_fract_y
  _atom_site_fract_z
  _atom_site_thermal_displace_type
  _atom_site_B_iso_or_equiv
  _atom_site_type_symbol
  _atom_site_charge
  C1       1.0000 0.14510  0.69100  0.21460  Biso   1.000  C  0.607197
  C2       1.0000 0.85490  0.30900  0.71460  Biso   1.000  C  0.607197
  C3       1.0000 0.80900  0.64510  0.96460  Biso   1.000  C  0.607197
  C4       1.0000 0.19100  0.35490  0.46460  Biso   1.000  C  0.607197
  C5       1.0000 0.35490  0.19100  0.53540  Biso   1.000  C  0.607197
  C6       1.0000 0.64510  0.80900  0.03540  Biso   1.000  C  0.607197
  C7       1.0000 0.69100  0.14510  0.78540  Biso   1.000  C  0.607197
  C8       1.0000 0.30900  0.85490  0.28540  Biso   1.000  C  0.607197
  C9       1.0000 0.03680  0.70530  0.20190  Biso   1.000  C  -0.045571
  C10      1.0000 0.96320  0.29470  0.70190  Biso   1.000  C  -0.045571
  C11      1.0000 0.79470  0.53680  0.95190  Biso   1.000  C  -0.045571
  C12      1.0000 0.20530  0.46320  0.45190  Biso   1.000  C  -0.045571
  C13      1.0000 0.46320  0.20530  0.54810  Biso   1.000  C  -0.045571
  C14      1.0000 0.53680  0.79470  0.04810  Biso   1.000  C  -0.045571
  C15      1.0000 0.70530  0.03680  0.79810  Biso   1.000  C  -0.045571
  C16      1.0000 0.29470  0.96320  0.29810  Biso   1.000  C  -0.045571
  C17      1.0000 0.96690  0.69040  0.24420  Biso   1.000  C  -0.112836
  C18      1.0000 0.03310  0.30960  0.74420  Biso   1.000  C  -0.112836
  C19      1.0000 0.80960  0.46690  0.99420  Biso   1.000  C  -0.112836
  C20      1.0000 0.19040  0.53310  0.49420  Biso   1.000  C  -0.112836
  C21      1.0000 0.53310  0.19040  0.50580  Biso   1.000  C  -0.112836
  C22      1.0000 0.46690  0.80960  0.00580  Biso   1.000  C  -0.112836
  C23      1.0000 0.69040  0.96690  0.75580  Biso   1.000  C  -0.112836
  C24      1.0000 0.30960  0.03310  0.25580  Biso   1.000  C  -0.112836
  C25      1.0000 0.86670  0.70830  0.23370  Biso   1.000  C  0.041281
  C26      1.0000 0.13330  0.29170  0.73370  Biso   1.000  C  0.041281
  C27      1.0000 0.79170  0.36670  0.98370  Biso   1.000  C  0.041281
  C28      1.0000 0.20830  0.63330  0.48370  Biso   1.000  C  0.041281
  C29      1.0000 0.63330  0.20830  0.51630  Biso   1.000  C  0.041281
  C30      1.0000 0.36670  0.79170  0.01630  Biso   1.000  C  0.041281
  C31      1.0000 0.70830  0.86670  0.76630  Biso   1.000  C  0.041281
  C32      1.0000 0.29170  0.13330  0.26630  Biso   1.000  C  0.041281
  C33      1.0000 0.84220  0.73920  0.17810  Biso   1.000  C  0.033058
  C34      1.0000 0.15780  0.26080  0.67810  Biso   1.000  C  0.033058
  C35      1.0000 0.76080  0.34220  0.92810  Biso   1.000  C  0.033058
  C36      1.0000 0.23920  0.65780  0.42810  Biso   1.000  C  0.033058
  C37      1.0000 0.65780  0.23920  0.57190  Biso   1.000  C  0.033058
  C38      1.0000 0.34220  0.76080  0.07190  Biso   1.000  C  0.033058
  C39      1.0000 0.73920  0.84220  0.82190  Biso   1.000  C  0.033058
  C40      1.0000 0.26080  0.15780  0.32190  Biso   1.000  C  0.033058
  C41      1.0000 0.00570  0.73480  0.14860  Biso   1.000  C  0.058139
  C42      1.0000 0.99430  0.26520  0.64860  Biso   1.000  C  0.058139
  C43      1.0000 0.76520  0.50570  0.89860  Biso   1.000  C  0.058139
  C44      1.0000 0.23480  0.49430  0.39860  Biso   1.000  C  0.058139
  C45      1.0000 0.49430  0.23480  0.60140  Biso   1.000  C  0.058139
  C46      1.0000 0.50570  0.76520  0.10140  Biso   1.000  C  0.058139
  C47      1.0000 0.73480  0.00570  0.85140  Biso   1.000  C  0.058139
  C48      1.0000 0.26520  0.99430  0.35140  Biso   1.000  C  0.058139
  C49      1.0000 0.78790  0.69630  0.27730  Biso   1.000  C  0.061598
  C50      1.0000 0.21210  0.30370  0.77730  Biso   1.000  C  0.061598
  C51      1.0000 0.80370  0.28790  0.02730  Biso   1.000  C  0.061598
  C52      1.0000 0.19630  0.71210  0.52730  Biso   1.000  C  0.061598
  C53      1.0000 0.71210  0.19630  0.47270  Biso   1.000  C  0.061598
  C54      1.0000 0.28790  0.80370  0.97270  Biso   1.000  C  0.061598
  C55      1.0000 0.69630  0.78790  0.72270  Biso   1.000  C  0.061598
  C56      1.0000 0.30370  0.21210  0.22270  Biso   1.000  C  0.061598
  C57      1.0000 0.68840  0.68770  0.26150  Biso   1.000  C  -0.165505
  C58      1.0000 0.31160  0.31230  0.76150  Biso   1.000  C  -0.165505
  C59      1.0000 0.81230  0.18840  0.01150  Biso   1.000  C  -0.165505
  C60      1.0000 0.18770  0.81160  0.51150  Biso   1.000  C  -0.165505
  C61      1.0000 0.81160  0.18770  0.48850  Biso   1.000  C  -0.165505
  C62      1.0000 0.18840  0.81230  0.98850  Biso   1.000  C  -0.165505
  C63      1.0000 0.68770  0.68840  0.73850  Biso   1.000  C  -0.165505
  C64      1.0000 0.31230  0.31160  0.23850  Biso   1.000  C  -0.165505
  C65      1.0000 0.61250  0.67920  0.30180  Biso   1.000  C  -0.007349
  C66      1.0000 0.38750  0.32080  0.80180  Biso   1.000  C  -0.007349
  C67      1.0000 0.82080  0.11250  0.05180  Biso   1.000  C  -0.007349
  C68      1.0000 0.17920  0.88750  0.55180  Biso   1.000  C  -0.007349
  C69      1.0000 0.88750  0.17920  0.44820  Biso   1.000  C  -0.007349
  C70      1.0000 0.11250  0.82080  0.94820  Biso   1.000  C  -0.007349
  C71      1.0000 0.67920  0.61250  0.69820  Biso   1.000  C  -0.007349
  C72      1.0000 0.32080  0.38750  0.19820  Biso   1.000  C  -0.007349
  C73      1.0000 0.63890  0.67930  0.35840  Biso   1.000  C  -0.100123
  C74      1.0000 0.36110  0.32070  0.85840  Biso   1.000  C  -0.100123
  C75      1.0000 0.82070  0.13890  0.10840  Biso   1.000  C  -0.100123
  C76      1.0000 0.17930  0.86110  0.60840  Biso   1.000  C  -0.100123
  C77      1.0000 0.86110  0.17930  0.39160  Biso   1.000  C  -0.100123
  C78      1.0000 0.13890  0.82070  0.89160  Biso   1.000  C  -0.100123
  C79      1.0000 0.67930  0.63890  0.64160  Biso   1.000  C  -0.100123
  C80      1.0000 0.32070  0.36110  0.14160  Biso   1.000  C  -0.100123
  C81      1.0000 0.73510  0.68970  0.37550  Biso   1.000  C  -0.084755
  C82      1.0000 0.26490  0.31030  0.87550  Biso   1.000  C  -0.084755
  C83      1.0000 0.81030  0.23510  0.12550  Biso   1.000  C  -0.084755
  C84      1.0000 0.18970  0.76490  0.62550  Biso   1.000  C  -0.084755
  C85      1.0000 0.76490  0.18970  0.37450  Biso   1.000  C  -0.084755
  C86      1.0000 0.23510  0.81030  0.87450  Biso   1.000  C  -0.084755
  C87      1.0000 0.68970  0.73510  0.62450  Biso   1.000  C  -0.084755
  C88      1.0000 0.31030  0.26490  0.12450  Biso   1.000  C  -0.084755
  C89      1.0000 0.81060  0.70050  0.33530  Biso   1.000  C  -0.138795
  C90      1.0000 0.18940  0.29950  0.83530  Biso   1.000  C  -0.138795
  C91      1.0000 0.79950  0.31060  0.08530  Biso   1.000  C  -0.138796
  C92      1.0000 0.20050  0.68940  0.58530  Biso   1.000  C  -0.138795
  C93      1.0000 0.68940  0.20050  0.41470  Biso   1.000  C  -0.138795
  C94      1.0000 0.31060  0.79950  0.91470  Biso   1.000  C  -0.138795
  C95      1.0000 0.70050  0.81060  0.66470  Biso   1.000  C  -0.138796
  C96      1.0000 0.29950  0.18940  0.16470  Biso   1.000  C  -0.138796
  C97      1.0000 0.50870  0.67190  0.28280  Biso   1.000  C  0.609820
  C98      1.0000 0.49130  0.32810  0.78280  Biso   1.000  C  0.609820
  C99      1.0000 0.82810  0.00870  0.03280  Biso   1.000  C  0.609820
  C100     1.0000 0.17190  0.99130  0.53280  Biso   1.000  C  0.609820
  C101     1.0000 0.99130  0.17190  0.46720  Biso   1.000  C  0.609819
  C102     1.0000 0.00870  0.82810  0.96720  Biso   1.000  C  0.609819
  C103     1.0000 0.67190  0.50870  0.71720  Biso   1.000  C  0.609819
  C104     1.0000 0.32810  0.49130  0.21720  Biso   1.000  C  0.609819
  H1       1.0000 0.98690  0.66810  0.28010  Biso   1.000  H  0.128853
  H2       1.0000 0.01310  0.33190  0.78010  Biso   1.000  H  0.128853
  H3       1.0000 0.83190  0.48690  0.03010  Biso   1.000  H  0.128853
  H4       1.0000 0.16810  0.51310  0.53010  Biso   1.000  H  0.128853
  H5       1.0000 0.51310  0.16810  0.46990  Biso   1.000  H  0.128853
  H6       1.0000 0.48690  0.83190  0.96990  Biso   1.000  H  0.128853
  H7       1.0000 0.66810  0.98690  0.71990  Biso   1.000  H  0.128853
  H8       1.0000 0.33190  0.01310  0.21990  Biso   1.000  H  0.128853
  H9       1.0000 0.77600  0.75260  0.16980  Biso   1.000  H  0.106102
  H10      1.0000 0.22400  0.24740  0.66980  Biso   1.000  H  0.106102
  H11      1.0000 0.74740  0.27600  0.91980  Biso   1.000  H  0.106102
  H12      1.0000 0.25260  0.72400  0.41980  Biso   1.000  H  0.106102
  H13      1.0000 0.72400  0.25260  0.58020  Biso   1.000  H  0.106102
  H14      1.0000 0.27600  0.74740  0.08020  Biso   1.000  H  0.106102
  H15      1.0000 0.75260  0.77600  0.83020  Biso   1.000  H  0.106102
  H16      1.0000 0.24740  0.22400  0.33020  Biso   1.000  H  0.106102
  H17      1.0000 0.05270  0.74420  0.11990  Biso   1.000  H  0.107564
  H18      1.0000 0.94730  0.25580  0.61990  Biso   1.000  H  0.107564
  H19      1.0000 0.75580  0.55270  0.86990  Biso   1.000  H  0.107564
  H20      1.0000 0.24420  0.44730  0.36990  Biso   1.000  H  0.107564
  H21      1.0000 0.44730  0.24420  0.63010  Biso   1.000  H  0.107564
  H22      1.0000 0.55270  0.75580  0.13010  Biso   1.000  H  0.107564
  H23      1.0000 0.74420  0.05270  0.88010  Biso   1.000  H  0.107564
  H24      1.0000 0.25580  0.94730  0.38010  Biso   1.000  H  0.107564
  H25      1.0000 0.67220  0.68760  0.22290  Biso   1.000  H  0.118615
  H26      1.0000 0.32780  0.31240  0.72290  Biso   1.000  H  0.118615
  H27      1.0000 0.81240  0.17220  0.97290  Biso   1.000  H  0.118615
  H28      1.0000 0.18760  0.82780  0.47290  Biso   1.000  H  0.118615
  H29      1.0000 0.82780  0.18760  0.52710  Biso   1.000  H  0.118615
  H30      1.0000 0.17220  0.81240  0.02710  Biso   1.000  H  0.118615
  H31      1.0000 0.68760  0.67220  0.77710  Biso   1.000  H  0.118615
  H32      1.0000 0.31240  0.32780  0.27710  Biso   1.000  H  0.118615
  H33      1.0000 0.58960  0.67210  0.38600  Biso   1.000  H  0.113838
  H34      1.0000 0.41040  0.32790  0.88600  Biso   1.000  H  0.113838
  H35      1.0000 0.82790  0.08960  0.13600  Biso   1.000  H  0.113838
  H36      1.0000 0.17210  0.91040  0.63600  Biso   1.000  H  0.113838
  H37      1.0000 0.91040  0.17210  0.36400  Biso   1.000  H  0.113838
  H38      1.0000 0.08960  0.82790  0.86400  Biso   1.000  H  0.113838
  H39      1.0000 0.67210  0.58960  0.61400  Biso   1.000  H  0.113838
  H40      1.0000 0.32790  0.41040  0.11400  Biso   1.000  H  0.113838
  H41      1.0000 0.75040  0.68960  0.41430  Biso   1.000  H  0.109480
  H42      1.0000 0.24960  0.31040  0.91430  Biso   1.000  H  0.109480
  H43      1.0000 0.81040  0.25040  0.16430  Biso   1.000  H  0.109480
  H44      1.0000 0.18960  0.74960  0.66430  Biso   1.000  H  0.109480
  H45      1.0000 0.74960  0.18960  0.33570  Biso   1.000  H  0.109480
  H46      1.0000 0.25040  0.81040  0.83570  Biso   1.000  H  0.109480
  H47      1.0000 0.68960  0.75040  0.58570  Biso   1.000  H  0.109480
  H48      1.0000 0.31040  0.24960  0.08570  Biso   1.000  H  0.109480
  H49      1.0000 0.87580  0.71050  0.34720  Biso   1.000  H  0.116675
  H50      1.0000 0.12420  0.28950  0.84720  Biso   1.000  H  0.116675
  H51      1.0000 0.78950  0.37580  0.09720  Biso   1.000  H  0.116675
  H52      1.0000 0.21050  0.62420  0.59720  Biso   1.000  H  0.116675
  H53      1.0000 0.62420  0.21050  0.40280  Biso   1.000  H  0.116675
  H54      1.0000 0.37580  0.78950  0.90280  Biso   1.000  H  0.116675
  H55      1.0000 0.71050  0.87580  0.65280  Biso   1.000  H  0.116675
  H56      1.0000 0.28950  0.12420  0.15280  Biso   1.000  H  0.116675
  N1       1.0000 0.90930  0.75030  0.13660  Biso   1.000  N  -0.183542
  N2       1.0000 0.09070  0.24970  0.63660  Biso   1.000  N  -0.183542
  N3       1.0000 0.74970  0.40930  0.88660  Biso   1.000  N  -0.183542
  N4       1.0000 0.25030  0.59070  0.38660  Biso   1.000  N  -0.183542
  N5       1.0000 0.59070  0.25030  0.61340  Biso   1.000  N  -0.183542
  N6       1.0000 0.40930  0.74970  0.11340  Biso   1.000  N  -0.183542
  N7       1.0000 0.75030  0.90930  0.86340  Biso   1.000  N  -0.183542
  N8       1.0000 0.24970  0.09070  0.36340  Biso   1.000  N  -0.183542
  O1       1.0000 0.20620  0.71220  0.17580  Biso   1.000  O  -0.554228
  O2       1.0000 0.79380  0.28780  0.67580  Biso   1.000  O  -0.554228
  O3       1.0000 0.78780  0.70620  0.92580  Biso   1.000  O  -0.554228
  O4       1.0000 0.21220  0.29380  0.42580  Biso   1.000  O  -0.554228
  O5       1.0000 0.29380  0.21220  0.57420  Biso   1.000  O  -0.554228
  O6       1.0000 0.70620  0.78780  0.07420  Biso   1.000  O  -0.554228
  O7       1.0000 0.71220  0.20620  0.82420  Biso   1.000  O  -0.554228
  O8       1.0000 0.28780  0.79380  0.32420  Biso   1.000  O  -0.554228
  O9       1.0000 0.16590  0.65970  0.26330  Biso   1.000  O  -0.555365
  O10      1.0000 0.83410  0.34030  0.76330  Biso   1.000  O  -0.555365
  O11      1.0000 0.84030  0.66590  0.01330  Biso   1.000  O  -0.555365
  O12      1.0000 0.15970  0.33410  0.51330  Biso   1.000  O  -0.555365
  O13      1.0000 0.33410  0.15970  0.48670  Biso   1.000  O  -0.555365
  O14      1.0000 0.66590  0.84030  0.98670  Biso   1.000  O  -0.555365
  O15      1.0000 0.65970  0.16590  0.73670  Biso   1.000  O  -0.555365
  O16      1.0000 0.34030  0.83410  0.23670  Biso   1.000  O  -0.555365
  O17      1.0000 0.49030  0.68680  0.23080  Biso   1.000  O  -0.563178
  O18      1.0000 0.50970  0.31320  0.73080  Biso   1.000  O  -0.563178
  O19      1.0000 0.81320  0.99030  0.98080  Biso   1.000  O  -0.563178
  O20      1.0000 0.18680  0.00970  0.48080  Biso   1.000  O  -0.563178
  O21      1.0000 0.00970  0.18680  0.51920  Biso   1.000  O  -0.563178
  O22      1.0000 0.99030  0.81320  0.01920  Biso   1.000  O  -0.563178
  O23      1.0000 0.68680  0.49030  0.76920  Biso   1.000  O  -0.563178
  O24      1.0000 0.31320  0.50970  0.26920  Biso   1.000  O  -0.563178
  O25      1.0000 0.44440  0.65350  0.31970  Biso   1.000  O  -0.557122
  O26      1.0000 0.55560  0.34650  0.81970  Biso   1.000  O  -0.557122
  O27      1.0000 0.84650  0.94440  0.06970  Biso   1.000  O  -0.557122
  O28      1.0000 0.15350  0.05560  0.56970  Biso   1.000  O  -0.557122
  O29      1.0000 0.05560  0.15350  0.43030  Biso   1.000  O  -0.557122
  O30      1.0000 0.94440  0.84650  0.93030  Biso   1.000  O  -0.557122
  O31      1.0000 0.65350  0.44440  0.68030  Biso   1.000  O  -0.557122
  O32      1.0000 0.34650  0.55560  0.18030  Biso   1.000  O  -0.557122
  Zn1      1.0000 0.85790  0.79571  0.05864  Biso   1.000  Zn  0.856151
  Zn2      1.0000 0.14210  0.20429  0.55864  Biso   1.000  Zn  0.856151
  Zn3      1.0000 0.70429  0.35790  0.80864  Biso   1.000  Zn  0.856151
  Zn4      1.0000 0.29571  0.64210  0.30864  Biso   1.000  Zn  0.856151
  Zn5      1.0000 0.64210  0.29571  0.69136  Biso   1.000  Zn  0.856151
  Zn6      1.0000 0.35790  0.70429  0.19136  Biso   1.000  Zn  0.856151
  Zn7      1.0000 0.79571  0.85790  0.94136  Biso   1.000  Zn  0.856151
  Zn8      1.0000 0.20429  0.14210  0.44136  Biso   1.000  Zn  0.856151
