
##########################################################################
#               Crystallographic Information Format file
#               Produced by PyCifRW module
#
#  This is a CIF file.  CIF has been adopted by the International
#  Union of Crystallography as the standard for data archiving and
#  transmission.
#
#  For information on this file format, follow the CIF links at
#  http://www.iucr.org
##########################################################################

data_image0

_cell_length_a                          9.8642
_cell_length_b                          24.0588
_cell_length_c                          24.0588
_cell_angle_alpha                       61.8369
_cell_angle_beta                        82.145
_cell_angle_gamma                       97.855
_symmetry_space_group_name_H-M          'P 1'
_symmetry_int_tables_number             1
loop_
  _symmetry_equiv_pos_as_xyz
         'x, y, z' 
loop_
  _atom_site_label
  _atom_site_occupancy
  _atom_site_fract_x
  _atom_site_fract_y
  _atom_site_fract_z
  _atom_site_thermal_displace_type
  _atom_site_B_iso_or_equiv
  _atom_site_type_symbol
  _atom_site_charge
         C1        1.0000    0.53130   0.41200   0.64980   Biso      1.000     C          0.12205   
         C2        1.0000    0.66700   0.52830   0.78710   Biso      1.000     C          -0.105365           
         C3        1.0000    0.65160   0.47850   0.84920   Biso      1.000     C          -0.024214           
         C4        1.0000    0.69930   0.42390   0.85970   Biso      1.000     C          -0.098945           
         C5        1.0000    0.76630   0.41740   0.80910   Biso      1.000     C          -0.165759           
         C6        1.0000    0.58800   0.48550   0.90540   Biso      1.000     C          0.587162  
         C7        1.0000    0.74500   0.56120   0.98160   Biso      1.000     C          0.585622  
         C8        1.0000    0.89650   0.59360   0.96750   Biso      1.000     C          -0.018172           
         C9        1.0000    0.95660   0.65170   0.91220   Biso      1.000     C          -0.108073           
         C10       1.0000    0.09770   0.67990   0.89750   Biso      1.000     C          -0.172981           
         C11       1.0000    0.73680   0.52130   0.73510   Biso      1.000     C          -0.172955           
         C12       1.0000    0.18110   0.64980   0.93820   Biso      1.000     C          0.122228  
         C13       1.0000    0.97700   0.56470   0.00880   Biso      1.000     C          -0.097687           
         C14       1.0000    0.33760   0.67980   0.91960   Biso      1.000     C          -0.1359   
         C15       1.0000    0.55280   0.69090   0.84700   Biso      1.000     C          -0.169425           
         C16       1.0000    0.53360   0.74770   0.78530   Biso      1.000     C          0.124217  
         C17       1.0000    0.47190   0.73510   0.74360   Biso      1.000     C          -0.172897           
         C18       1.0000    0.45410   0.78710   0.68460   Biso      1.000     C          -0.105223           
         C19       1.0000    0.50080   0.84920   0.67230   Biso      1.000     C          -0.024557           
         C20       1.0000    0.55900   0.85970   0.71640   Biso      1.000     C          -0.099073           
         C21       1.0000    0.57540   0.80910   0.77350   Biso      1.000     C          -0.16506  
         C22       1.0000    0.11920   0.59310   0.99460   Biso      1.000     C          -0.141925           
         C23       1.0000    0.49340   0.90540   0.60910   Biso      1.000     C          0.58613   
         C24       1.0000    0.78590   0.46700   0.74770   Biso      1.000     C          0.123823  
         C25       1.0000    0.65780   0.40060   0.67980   Biso      1.000     C          -0.138365           
         C26       1.0000    0.31890   0.78530   0.46700   Biso      1.000     C          0.123505  
         C27       1.0000    0.39980   0.84700   0.46210   Biso      1.000     C          -0.169989           
         C28       1.0000    0.25720   0.91960   0.40060   Biso      1.000     C          -0.136766           
         C29       1.0000    0.98580   0.00880   0.42650   Biso      1.000     C          -0.096832           
         C30       1.0000    0.11380   0.99460   0.41230   Biso      1.000     C          -0.142356           
         C31       1.0000    0.11930   0.93820   0.41200   Biso      1.000     C          0.122247  
         C32       1.0000    0.99520   0.89750   0.42260   Biso      1.000     C          -0.172179           
         C33       1.0000    0.86880   0.91220   0.43610   Biso      1.000     C          -0.109392           
         C34       1.0000    0.86400   0.96750   0.43890   Biso      1.000     C          -0.0176   
         C35       1.0000    0.86190   0.46210   0.69090   Biso      1.000     C          -0.172547           
         C36       1.0000    0.72660   0.98160   0.45720   Biso      1.000     C          0.586414  
         C37       1.0000    0.27540   0.71640   0.42390   Biso      1.000     C          -0.099284           
         C38       1.0000    0.34890   0.77350   0.41740   Biso      1.000     C          -0.165582           
         C39       1.0000    0.10250   0.60910   0.48550   Biso      1.000     C          0.586909  
         C40       1.0000    0.18380   0.45720   0.56120   Biso      1.000     C          0.58618   
         C41       1.0000    0.30290   0.43890   0.59360   Biso      1.000     C          -0.017783           
         C42       1.0000    0.30490   0.43610   0.65170   Biso      1.000     C          -0.108648           
         C43       1.0000    0.41780   0.42260   0.67990   Biso      1.000     C          -0.172335           
         C44       1.0000    0.52610   0.41230   0.59310   Biso      1.000     C          -0.141916           
         C45       1.0000    0.41230   0.42650   0.56470   Biso      1.000     C          -0.096794           
         C46       1.0000    0.17310   0.67230   0.47850   Biso      1.000     C          -0.024678           
         C47       1.0000    0.27340   0.01840   0.54280   Biso      1.000     C          0.586442  
         C48       1.0000    0.13600   0.03250   0.56110   Biso      1.000     C          -0.017637           
         C49       1.0000    0.13120   0.08780   0.56390   Biso      1.000     C          -0.109365           
         C50       1.0000    0.34840   0.52150   0.15080   Biso      1.000     C          -0.024234           
         C51       1.0000    0.30070   0.57610   0.14030   Biso      1.000     C          -0.09899  
         C52       1.0000    0.23370   0.58260   0.19090   Biso      1.000     C          -0.165743           
         C53       1.0000    0.41200   0.51450   0.09460   Biso      1.000     C          0.587165  
         C54       1.0000    0.25500   0.43880   0.01840   Biso      1.000     C          0.585614  
         C55       1.0000    0.10350   0.40640   0.03250   Biso      1.000     C          -0.018161           
         C56       1.0000    0.04340   0.34830   0.08780   Biso      1.000     C          -0.108038           
         C57       1.0000    0.90230   0.32010   0.10250   Biso      1.000     C          -0.173006           
         C58       1.0000    0.81890   0.35020   0.06180   Biso      1.000     C          0.12215   
         C59       1.0000    0.33300   0.47170   0.21290   Biso      1.000     C          -0.105314           
         C60       1.0000    0.88080   0.40690   0.00540   Biso      1.000     C          -0.141913           
         C61       1.0000    0.66240   0.32020   0.08040   Biso      1.000     C          -0.135894           
         C62       1.0000    0.44720   0.30910   0.15300   Biso      1.000     C          -0.169441           
         C63       1.0000    0.46640   0.25230   0.21470   Biso      1.000     C          0.124184  
         C64       1.0000    0.52810   0.26490   0.25640   Biso      1.000     C          -0.17291  
         C65       1.0000    0.54590   0.21290   0.31540   Biso      1.000     C          -0.105179           
         C66       1.0000    0.49920   0.15080   0.32770   Biso      1.000     C          -0.024543           
         C67       1.0000    0.44100   0.14030   0.28360   Biso      1.000     C          -0.099106           
         C68       1.0000    0.42460   0.19090   0.22650   Biso      1.000     C          -0.165049           
         C69       1.0000    0.50660   0.09460   0.39090   Biso      1.000     C          0.586128  
         C70       1.0000    0.02300   0.43530   0.99120   Biso      1.000     C          -0.097726           
         C71       1.0000    0.26320   0.47870   0.26490   Biso      1.000     C          -0.172986           
         C72       1.0000    0.21410   0.53300   0.25230   Biso      1.000     C          0.123824  
         C73       1.0000    0.13810   0.53790   0.30910   Biso      1.000     C          -0.17254  
         C74       1.0000    0.00480   0.10250   0.57740   Biso      1.000     C          -0.172201           
         C75       1.0000    0.88070   0.06180   0.58800   Biso      1.000     C          0.12226   
         C76       1.0000    0.88620   0.00540   0.58770   Biso      1.000     C          -0.142335           
         C77       1.0000    0.01420   0.99120   0.57350   Biso      1.000     C          -0.096856           
         C78       1.0000    0.74280   0.08040   0.59940   Biso      1.000     C          -0.136799           
         C79       1.0000    0.60020   0.15300   0.53790   Biso      1.000     C          -0.169998           
         C80       1.0000    0.68110   0.21470   0.53300   Biso      1.000     C          0.123505  
         C81       1.0000    0.78450   0.25640   0.47870   Biso      1.000     C          -0.173907           
         C82       1.0000    0.86130   0.31540   0.47170   Biso      1.000     C          -0.104156           
         C83       1.0000    0.82690   0.32770   0.52150   Biso      1.000     C          -0.024696           
         C84       1.0000    0.72460   0.28360   0.57610   Biso      1.000     C          -0.09929  
         C85       1.0000    0.65110   0.22650   0.58260   Biso      1.000     C          -0.165589           
         C86       1.0000    0.89750   0.39090   0.51450   Biso      1.000     C          0.586914  
         C87       1.0000    0.81620   0.54280   0.43880   Biso      1.000     C          0.58618   
         C88       1.0000    0.69710   0.56110   0.40640   Biso      1.000     C          -0.017782           
         C89       1.0000    0.69510   0.56390   0.34830   Biso      1.000     C          -0.10864  
         C90       1.0000    0.58220   0.57740   0.32010   Biso      1.000     C          -0.172337           
         C91       1.0000    0.46870   0.58800   0.35020   Biso      1.000     C          0.12206   
         C92       1.0000    0.47390   0.58770   0.40690   Biso      1.000     C          -0.141914           
         C93       1.0000    0.58770   0.57350   0.43530   Biso      1.000     C          -0.096795           
         C94       1.0000    0.34220   0.59940   0.32020   Biso      1.000     C          -0.13836  
         C95       1.0000    0.21550   0.74360   0.52130   Biso      1.000     C          -0.173887           
         C96       1.0000    0.13870   0.68460   0.52830   Biso      1.000     C          -0.104139           
         Cu1       1.0000    0.56931   0.04045   0.51527   Biso      1.000     Cu          0.791203  
         Cu2       1.0000    0.08458   0.51527   0.44428   Biso      1.000     Cu          0.790223  
         Cu3       1.0000    0.52886   0.44428   0.04045   Biso      1.000     Cu          0.789512  
         Cu4       1.0000    0.43069   0.95955   0.48473   Biso      1.000     Cu          0.792136  
         Cu5       1.0000    0.91542   0.48473   0.55572   Biso      1.000     Cu          0.790323  
         Cu6       1.0000    0.47114   0.55572   0.95955   Biso      1.000     Cu          0.788759  
         H1        1.0000    0.40470   0.09710   0.29350   Biso      1.000     H          0.110739  
         H2        1.0000    0.73400   0.50700   0.62900   Biso      1.000     H          0.225935  
         H3        1.0000    0.88870   0.42190   0.70920   Biso      1.000     H          0.121134  
         H4        1.0000    0.38850   0.18250   0.19590   Biso      1.000     H          0.119475  
         H5        1.0000    0.74230   0.55370   0.69190   Biso      1.000     H          0.113608  
         H6        1.0000    0.63610   0.56670   0.77840   Biso      1.000     H          0.122378  
         H7        1.0000    0.69240   0.39060   0.90290   Biso      1.000     H          0.110822  
         H8        1.0000    0.79400   0.37840   0.81750   Biso      1.000     H          0.119784  
         H9        1.0000    0.17300   0.57230   0.02510   Biso      1.000     H          0.116019  
         H10       1.0000    0.13770   0.71870   0.85740   Biso      1.000     H          0.114585  
         H11       1.0000    0.69330   0.36780   0.67550   Biso      1.000     H          0.121272  
         H12       1.0000    0.93670   0.52410   0.04710   Biso      1.000     H          0.1171    
         H13       1.0000    0.35460   0.72440   0.88800   Biso      1.000     H          0.098969  
         H14       1.0000    0.36880   0.67550   0.95670   Biso      1.000     H          0.120439  
         H15       1.0000    0.36300   0.62900   0.86400   Biso      1.000     H          0.226383  
         H16       1.0000    0.59790   0.70920   0.86890   Biso      1.000     H          0.120346  
         H17       1.0000    0.89810   0.67380   0.88480   Biso      1.000     H          0.110766  
         H18       1.0000    0.63020   0.38760   0.72440   Biso      1.000     H          0.100132  
         H19       1.0000    0.41900   0.42390   0.71870   Biso      1.000     H          0.114696  
         H20       1.0000    0.60070   0.40260   0.57230   Biso      1.000     H          0.115809  
         H21       1.0000    0.78290   0.88480   0.44140   Biso      1.000     H          0.111806  
         H22       1.0000    0.99510   0.85740   0.42390   Biso      1.000     H          0.115145  
         H23       1.0000    0.19810   0.02510   0.40260   Biso      1.000     H          0.116227  
         H24       1.0000    0.98380   0.04710   0.42880   Biso      1.000     H          0.116856  
         H25       1.0000    0.24260   0.88800   0.38760   Biso      1.000     H          0.100066  
         H26       1.0000    0.32550   0.95670   0.36780   Biso      1.000     H          0.120473  
         H27       1.0000    0.22700   0.86400   0.50700   Biso      1.000     H          0.226208  
         H28       1.0000    0.46680   0.86890   0.42190   Biso      1.000     H          0.12066   
         H29       1.0000    0.44710   0.83710   0.49630   Biso      1.000     H          0.127585  
         H30       1.0000    0.18860   0.75440   0.55370   Biso      1.000     H          0.114114  
         H31       1.0000    0.06940   0.65490   0.56670   Biso      1.000     H          0.122517  
         H32       1.0000    0.30180   0.70650   0.39060   Biso      1.000     H          0.111178  
         H33       1.0000    0.41560   0.80410   0.37840   Biso      1.000     H          0.119775  
         H34       1.0000    0.22430   0.44140   0.67380   Biso      1.000     H          0.1115    
         H35       1.0000    0.61000   0.66660   0.83710   Biso      1.000     H          0.127173  
         H36       1.0000    0.41260   0.42880   0.52410   Biso      1.000     H          0.116838  
         H37       1.0000    0.43420   0.69190   0.75440   Biso      1.000     H          0.113738  
         H38       1.0000    0.94340   0.49630   0.66660   Biso      1.000     H          0.128413  
         H39       1.0000    0.59530   0.90290   0.70650   Biso      1.000     H          0.110768  
         H40       1.0000    0.11130   0.57810   0.29080   Biso      1.000     H          0.121131  
         H41       1.0000    0.05660   0.50370   0.33340   Biso      1.000     H          0.128421  
         H42       1.0000    0.25770   0.44630   0.30810   Biso      1.000     H          0.113632  
         H43       1.0000    0.36390   0.43330   0.22160   Biso      1.000     H          0.122402  
         H44       1.0000    0.30760   0.60940   0.09710   Biso      1.000     H          0.1108    
         H45       1.0000    0.20600   0.62160   0.18250   Biso      1.000     H          0.119752  
         H46       1.0000    0.10190   0.32620   0.11520   Biso      1.000     H          0.110775  
         H47       1.0000    0.86230   0.28130   0.14260   Biso      1.000     H          0.1146    
         H48       1.0000    0.82700   0.42770   0.97490   Biso      1.000     H          0.115996  
         H49       1.0000    0.06330   0.47590   0.95290   Biso      1.000     H          0.117074  
         H50       1.0000    0.64540   0.27560   0.11200   Biso      1.000     H          0.098962  
         H51       1.0000    0.41450   0.77840   0.65490   Biso      1.000     H          0.122715  
         H52       1.0000    0.63700   0.37100   0.13600   Biso      1.000     H          0.226394  
         H53       1.0000    0.40210   0.29080   0.13110   Biso      1.000     H          0.120316  
         H54       1.0000    0.39000   0.33340   0.16290   Biso      1.000     H          0.127153  
         H55       1.0000    0.56580   0.30810   0.24560   Biso      1.000     H          0.113756  
         H56       1.0000    0.58550   0.22160   0.34510   Biso      1.000     H          0.122741  
         H57       1.0000    0.26600   0.49300   0.37100   Biso      1.000     H          0.22594   
         H58       1.0000    0.30670   0.63220   0.32450   Biso      1.000     H          0.121268  
         H59       1.0000    0.63120   0.32450   0.04330   Biso      1.000     H          0.120417  
         H60       1.0000    0.58740   0.57120   0.47590   Biso      1.000     H          0.116827  
         H61       1.0000    0.61150   0.81750   0.80410   Biso      1.000     H          0.119457  
         H62       1.0000    0.21710   0.11520   0.55860   Biso      1.000     H          0.111831  
         H63       1.0000    0.00490   0.14260   0.57610   Biso      1.000     H          0.115161  
         H64       1.0000    0.80190   0.97490   0.59740   Biso      1.000     H          0.11622   
         H65       1.0000    0.01620   0.95290   0.57120   Biso      1.000     H          0.116807  
         H66       1.0000    0.75740   0.11200   0.61240   Biso      1.000     H          0.10005   
         H67       1.0000    0.36980   0.61240   0.27560   Biso      1.000     H          0.100131  
         H68       1.0000    0.67450   0.04330   0.63220   Biso      1.000     H          0.120476  
         H69       1.0000    0.77300   0.13600   0.49300   Biso      1.000     H          0.22618   
         H70       1.0000    0.55290   0.16290   0.50370   Biso      1.000     H          0.127594  
         H71       1.0000    0.81140   0.24560   0.44630   Biso      1.000     H          0.114153  
         H72       1.0000    0.93060   0.34510   0.43330   Biso      1.000     H          0.122531  
         H73       1.0000    0.69820   0.29350   0.60940   Biso      1.000     H          0.111165  
         H74       1.0000    0.58440   0.19590   0.62160   Biso      1.000     H          0.119779  
         H75       1.0000    0.77570   0.55860   0.32620   Biso      1.000     H          0.111506  
         H76       1.0000    0.58100   0.57610   0.28130   Biso      1.000     H          0.114693  
         H77       1.0000    0.39930   0.59740   0.42770   Biso      1.000     H          0.11581   
         H78       1.0000    0.53320   0.13110   0.57810   Biso      1.000     H          0.120659  
         N1        1.0000    0.22860   0.53850   0.35320   Biso      1.000     N          -0.294174           
         N2        1.0000    0.69010   0.10830   0.53850   Biso      1.000     N          -0.295554           
         N3        1.0000    0.58180   0.35320   0.10830   Biso      1.000     N          -0.295872           
         N4        1.0000    0.77140   0.46150   0.64680   Biso      1.000     N          -0.294153           
         N5        1.0000    0.30990   0.89170   0.46150   Biso      1.000     N          -0.295725           
         N6        1.0000    0.41820   0.64680   0.89170   Biso      1.000     N          -0.296366           
         O1        1.0000    0.33390   0.40470   0.04880   Biso      1.000     O          -0.522161           
         O2        1.0000    0.29080   0.49850   0.97790   Biso      1.000     O          -0.539032           
         O3        1.0000    0.41290   0.55780   0.03950   Biso      1.000     O          -0.522133           
         O4        1.0000    0.45380   0.46300   0.10850   Biso      1.000     O          -0.53832  
         O5        1.0000    0.92920   0.54650   0.40470   Biso      1.000     O          -0.522525           
         O6        1.0000    0.79230   0.52360   0.49850   Biso      1.000     O          -0.540145           
         O7        1.0000    0.85510   0.40270   0.55780   Biso      1.000     O          -0.522053           
         O8        1.0000    0.99080   0.42850   0.46300   Biso      1.000     O          -0.53789  
         O9        1.0000    0.38270   0.04880   0.54650   Biso      1.000     O          -0.522009           
         O10       1.0000    0.26870   0.97790   0.52360   Biso      1.000     O          -0.539908           
         O11       1.0000    0.54760   0.96050   0.59730   Biso      1.000     O          -0.522012           
         O12       1.0000    0.43770   0.89150   0.57150   Biso      1.000     O          -0.537469           
         O13       1.0000    0.70920   0.50150   0.02210   Biso      1.000     O          -0.539447           
         O14       1.0000    0.58710   0.44220   0.96050   Biso      1.000     O          -0.52241  
         O15       1.0000    0.54620   0.53700   0.89150   Biso      1.000     O          -0.537981           
         O16       1.0000    0.07080   0.45350   0.59530   Biso      1.000     O          -0.522494           
         O17       1.0000    0.20770   0.47640   0.50150   Biso      1.000     O          -0.540172           
         O18       1.0000    0.14490   0.59730   0.44220   Biso      1.000     O          -0.52207  
         O19       1.0000    0.00920   0.57150   0.53700   Biso      1.000     O          -0.537857           
         O20       1.0000    0.61730   0.95120   0.45350   Biso      1.000     O          -0.521972           
         O21       1.0000    0.73130   0.02210   0.47640   Biso      1.000     O          -0.539913           
         O22       1.0000    0.56230   0.10850   0.42850   Biso      1.000     O          -0.537513           
         O23       1.0000    0.66610   0.59530   0.95120   Biso      1.000     O          -0.521701           
         O24       1.0000    0.45240   0.03950   0.40270   Biso      1.000     O          -0.522024 