data_image0
_cell_length_a       20.3157
_cell_length_b       20.3157
_cell_length_c       19.918
_cell_angle_alpha    90
_cell_angle_beta     90
_cell_angle_gamma    90

_symmetry_space_group_name_H-M    "P 1"
_symmetry_int_tables_number       1

loop_
  _symmetry_equiv_pos_as_xyz
  'x, y, z'

loop_
  _atom_site_label
  _atom_site_occupancy
  _atom_site_fract_x
  _atom_site_fract_y
  _atom_site_fract_z
  _atom_site_thermal_displace_type
  _atom_site_B_iso_or_equiv
  _atom_site_type_symbol
  _atom_site_charge
  C1       1.0000 0.94120  0.30870  0.29920  Biso   1.000  C  -0.157259
  C2       1.0000 0.94290  0.26470  0.24450  Biso   1.000  C  -0.114942
  C3       1.0000 0.05880  0.69130  0.29920  Biso   1.000  C  -0.157260
  C4       1.0000 0.05710  0.73530  0.24450  Biso   1.000  C  -0.114942
  C5       1.0000 0.69130  0.94120  0.29920  Biso   1.000  C  -0.157259
  C6       1.0000 0.73530  0.94290  0.24450  Biso   1.000  C  -0.114942
  C7       1.0000 0.30870  0.05880  0.29920  Biso   1.000  C  -0.157260
  C8       1.0000 0.26470  0.05710  0.24450  Biso   1.000  C  -0.114942
  C9       1.0000 0.05880  0.30870  0.70080  Biso   1.000  C  -0.157260
  C10      1.0000 0.05710  0.26470  0.75550  Biso   1.000  C  -0.114942
  C11      1.0000 0.94120  0.69130  0.70080  Biso   1.000  C  -0.157261
  C12      1.0000 0.94290  0.73530  0.75550  Biso   1.000  C  -0.114942
  C13      1.0000 0.30870  0.94120  0.70080  Biso   1.000  C  -0.157260
  C14      1.0000 0.26470  0.94290  0.75550  Biso   1.000  C  -0.114942
  C15      1.0000 0.69130  0.05880  0.70080  Biso   1.000  C  -0.157260
  C16      1.0000 0.73530  0.05710  0.75550  Biso   1.000  C  -0.114942
  C17      1.0000 0.05880  0.69130  0.70080  Biso   1.000  C  -0.157260
  C18      1.0000 0.05710  0.73530  0.75550  Biso   1.000  C  -0.114942
  C19      1.0000 0.94120  0.30870  0.70080  Biso   1.000  C  -0.157259
  C20      1.0000 0.94290  0.26470  0.75550  Biso   1.000  C  -0.114943
  C21      1.0000 0.30870  0.05880  0.70080  Biso   1.000  C  -0.157259
  C22      1.0000 0.26470  0.05710  0.75550  Biso   1.000  C  -0.114943
  C23      1.0000 0.69130  0.94120  0.70080  Biso   1.000  C  -0.157260
  C24      1.0000 0.73530  0.94290  0.75550  Biso   1.000  C  -0.114942
  C25      1.0000 0.94120  0.69130  0.29920  Biso   1.000  C  -0.157260
  C26      1.0000 0.94290  0.73530  0.24450  Biso   1.000  C  -0.114943
  C27      1.0000 0.05880  0.30870  0.29920  Biso   1.000  C  -0.157259
  C28      1.0000 0.05710  0.26470  0.24450  Biso   1.000  C  -0.114943
  C29      1.0000 0.69130  0.05880  0.29920  Biso   1.000  C  -0.157259
  C30      1.0000 0.73530  0.05710  0.24450  Biso   1.000  C  -0.114943
  C31      1.0000 0.30870  0.94120  0.29920  Biso   1.000  C  -0.157260
  C32      1.0000 0.26470  0.94290  0.24450  Biso   1.000  C  -0.114943
  C33      1.0000 0.00000  0.36020  0.44470  Biso   1.000  C  0.196662
  C34      1.0000 0.00000  0.37970  0.37950  Biso   1.000  C  -0.072948
  C35      1.0000 0.00000  0.44740  0.35820  Biso   1.000  C  0.198556
  C36      1.0000 0.00000  0.29300  0.46720  Biso   1.000  C  -0.155430
  C37      1.0000 0.00000  0.46780  0.29040  Biso   1.000  C  -0.161317
  C38      1.0000 0.00000  0.33040  0.32470  Biso   1.000  C  0.095353
  C39      1.0000 0.00000  0.24340  0.21710  Biso   1.000  C  0.042727
  C40      1.0000 0.00000  0.20010  0.15760  Biso   1.000  C  0.244601
  C41      1.0000 0.00000  0.63980  0.44470  Biso   1.000  C  0.196663
  C42      1.0000 0.00000  0.62030  0.37950  Biso   1.000  C  -0.072948
  C43      1.0000 0.00000  0.55260  0.35820  Biso   1.000  C  0.198543
  C44      1.0000 0.00000  0.70700  0.46720  Biso   1.000  C  -0.155430
  C45      1.0000 0.00000  0.53220  0.29040  Biso   1.000  C  -0.161190
  C46      1.0000 0.00000  0.66960  0.32470  Biso   1.000  C  0.095351
  C47      1.0000 0.00000  0.75660  0.21710  Biso   1.000  C  0.042727
  C48      1.0000 0.00000  0.79990  0.15760  Biso   1.000  C  0.244600
  C49      1.0000 0.63980  0.00000  0.44470  Biso   1.000  C  0.196662
  C50      1.0000 0.62030  0.00000  0.37950  Biso   1.000  C  -0.072948
  C51      1.0000 0.55260  0.00000  0.35820  Biso   1.000  C  0.198556
  C52      1.0000 0.70700  0.00000  0.46720  Biso   1.000  C  -0.155430
  C53      1.0000 0.53220  0.00000  0.29040  Biso   1.000  C  -0.161317
  C54      1.0000 0.66960  0.00000  0.32470  Biso   1.000  C  0.095353
  C55      1.0000 0.75660  0.00000  0.21710  Biso   1.000  C  0.042727
  C56      1.0000 0.79990  0.00000  0.15760  Biso   1.000  C  0.244600
  C57      1.0000 0.36020  0.00000  0.44470  Biso   1.000  C  0.196663
  C58      1.0000 0.37970  0.00000  0.37950  Biso   1.000  C  -0.072948
  C59      1.0000 0.44740  0.00000  0.35820  Biso   1.000  C  0.198543
  C60      1.0000 0.29300  0.00000  0.46720  Biso   1.000  C  -0.155429
  C61      1.0000 0.46780  0.00000  0.29040  Biso   1.000  C  -0.161190
  C62      1.0000 0.33040  0.00000  0.32470  Biso   1.000  C  0.095351
  C63      1.0000 0.24340  0.00000  0.21710  Biso   1.000  C  0.042727
  C64      1.0000 0.20010  0.00000  0.15760  Biso   1.000  C  0.244600
  C65      1.0000 0.00000  0.36020  0.55530  Biso   1.000  C  0.196649
  C66      1.0000 0.00000  0.37970  0.62050  Biso   1.000  C  -0.072948
  C67      1.0000 0.00000  0.44740  0.64180  Biso   1.000  C  0.198557
  C68      1.0000 0.00000  0.29300  0.53280  Biso   1.000  C  -0.155291
  C69      1.0000 0.00000  0.46780  0.70960  Biso   1.000  C  -0.161317
  C70      1.0000 0.00000  0.33040  0.67530  Biso   1.000  C  0.095351
  C71      1.0000 0.00000  0.24340  0.78290  Biso   1.000  C  0.042727
  C72      1.0000 0.00000  0.20010  0.84240  Biso   1.000  C  0.244601
  C73      1.0000 0.00000  0.63980  0.55530  Biso   1.000  C  0.196649
  C74      1.0000 0.00000  0.62030  0.62050  Biso   1.000  C  -0.072948
  C75      1.0000 0.00000  0.55260  0.64180  Biso   1.000  C  0.198544
  C76      1.0000 0.00000  0.70700  0.53280  Biso   1.000  C  -0.155291
  C77      1.0000 0.00000  0.53220  0.70960  Biso   1.000  C  -0.161190
  C78      1.0000 0.00000  0.66960  0.67530  Biso   1.000  C  0.095349
  C79      1.0000 0.00000  0.75660  0.78290  Biso   1.000  C  0.042727
  C80      1.0000 0.00000  0.79990  0.84240  Biso   1.000  C  0.244600
  C81      1.0000 0.36020  0.00000  0.55530  Biso   1.000  C  0.196649
  C82      1.0000 0.37970  0.00000  0.62050  Biso   1.000  C  -0.072948
  C83      1.0000 0.44740  0.00000  0.64180  Biso   1.000  C  0.198557
  C84      1.0000 0.29300  0.00000  0.53280  Biso   1.000  C  -0.155291
  C85      1.0000 0.46780  0.00000  0.70960  Biso   1.000  C  -0.161317
  C86      1.0000 0.33040  0.00000  0.67530  Biso   1.000  C  0.095351
  C87      1.0000 0.24340  0.00000  0.78290  Biso   1.000  C  0.042727
  C88      1.0000 0.20010  0.00000  0.84240  Biso   1.000  C  0.244600
  C89      1.0000 0.63980  0.00000  0.55530  Biso   1.000  C  0.196649
  C90      1.0000 0.62030  0.00000  0.62050  Biso   1.000  C  -0.072949
  C91      1.0000 0.55260  0.00000  0.64180  Biso   1.000  C  0.198544
  C92      1.0000 0.70700  0.00000  0.53280  Biso   1.000  C  -0.155291
  C93      1.0000 0.53220  0.00000  0.70960  Biso   1.000  C  -0.161190
  C94      1.0000 0.66960  0.00000  0.67530  Biso   1.000  C  0.095349
  C95      1.0000 0.75660  0.00000  0.78290  Biso   1.000  C  0.042727
  C96      1.0000 0.79990  0.00000  0.84240  Biso   1.000  C  0.244600
  Cl1      1.0000 0.00000  0.00000  0.00000  Biso   1.000  Cl  -0.455029
  Cl2      1.0000 0.12580  0.50000  0.50000  Biso   1.000  Cl  -0.403790
  Cl3      1.0000 0.87420  0.50000  0.50000  Biso   1.000  Cl  -0.403791
  Cl4      1.0000 0.50000  0.12580  0.50000  Biso   1.000  Cl  -0.403790
  Cl5      1.0000 0.50000  0.87420  0.50000  Biso   1.000  Cl  -0.403790
  H1       1.0000 0.90150  0.32260  0.31750  Biso   1.000  H  0.131225
  H2       1.0000 0.90330  0.24970  0.22660  Biso   1.000  H  0.116338
  H3       1.0000 0.09850  0.67740  0.31750  Biso   1.000  H  0.131225
  H4       1.0000 0.09670  0.75030  0.22660  Biso   1.000  H  0.116338
  H5       1.0000 0.67740  0.90150  0.31750  Biso   1.000  H  0.131225
  H6       1.0000 0.75030  0.90330  0.22660  Biso   1.000  H  0.116338
  H7       1.0000 0.32260  0.09850  0.31750  Biso   1.000  H  0.131225
  H8       1.0000 0.24970  0.09670  0.22660  Biso   1.000  H  0.116338
  H9       1.0000 0.09850  0.32260  0.68250  Biso   1.000  H  0.131225
  H10      1.0000 0.09670  0.24970  0.77340  Biso   1.000  H  0.116338
  H11      1.0000 0.90150  0.67740  0.68250  Biso   1.000  H  0.131225
  H12      1.0000 0.90330  0.75030  0.77340  Biso   1.000  H  0.116338
  H13      1.0000 0.32260  0.90150  0.68250  Biso   1.000  H  0.131225
  H14      1.0000 0.24970  0.90330  0.77340  Biso   1.000  H  0.116338
  H15      1.0000 0.67740  0.09850  0.68250  Biso   1.000  H  0.131225
  H16      1.0000 0.75030  0.09670  0.77340  Biso   1.000  H  0.116338
  H17      1.0000 0.09850  0.67740  0.68250  Biso   1.000  H  0.131223
  H18      1.0000 0.09670  0.75030  0.77340  Biso   1.000  H  0.116337
  H19      1.0000 0.90150  0.32260  0.68250  Biso   1.000  H  0.131223
  H20      1.0000 0.90330  0.24970  0.77340  Biso   1.000  H  0.116337
  H21      1.0000 0.32260  0.09850  0.68250  Biso   1.000  H  0.131223
  H22      1.0000 0.24970  0.09670  0.77340  Biso   1.000  H  0.116337
  H23      1.0000 0.67740  0.90150  0.68250  Biso   1.000  H  0.131224
  H24      1.0000 0.75030  0.90330  0.77340  Biso   1.000  H  0.116337
  H25      1.0000 0.90150  0.67740  0.31750  Biso   1.000  H  0.131223
  H26      1.0000 0.90330  0.75030  0.22660  Biso   1.000  H  0.116337
  H27      1.0000 0.09850  0.32260  0.31750  Biso   1.000  H  0.131224
  H28      1.0000 0.09670  0.24970  0.22660  Biso   1.000  H  0.116337
  H29      1.0000 0.67740  0.09850  0.31750  Biso   1.000  H  0.131223
  H30      1.0000 0.75030  0.09670  0.22660  Biso   1.000  H  0.116337
  H31      1.0000 0.32260  0.90150  0.31750  Biso   1.000  H  0.131223
  H32      1.0000 0.24970  0.90330  0.22660  Biso   1.000  H  0.116337
  H33      1.0000 0.00000  0.25590  0.43980  Biso   1.000  H  0.138254
  H34      1.0000 0.00000  0.44060  0.25280  Biso   1.000  H  0.138891
  H35      1.0000 0.00000  0.74410  0.43980  Biso   1.000  H  0.138254
  H36      1.0000 0.00000  0.55940  0.25280  Biso   1.000  H  0.138873
  H37      1.0000 0.74410  0.00000  0.43980  Biso   1.000  H  0.138253
  H38      1.0000 0.55940  0.00000  0.25280  Biso   1.000  H  0.138891
  H39      1.0000 0.25590  0.00000  0.43980  Biso   1.000  H  0.138253
  H40      1.0000 0.44060  0.00000  0.25280  Biso   1.000  H  0.138873
  H41      1.0000 0.00000  0.25590  0.56020  Biso   1.000  H  0.138241
  H42      1.0000 0.00000  0.44060  0.74720  Biso   1.000  H  0.138891
  H43      1.0000 0.00000  0.74410  0.56020  Biso   1.000  H  0.138241
  H44      1.0000 0.00000  0.55940  0.74720  Biso   1.000  H  0.138873
  H45      1.0000 0.25590  0.00000  0.56020  Biso   1.000  H  0.138240
  H46      1.0000 0.44060  0.00000  0.74720  Biso   1.000  H  0.138892
  H47      1.0000 0.74410  0.00000  0.56020  Biso   1.000  H  0.138240
  H48      1.0000 0.55940  0.00000  0.74720  Biso   1.000  H  0.138873
  Mn1      1.0000 0.00000  0.50000  0.50000  Biso   1.000  Mn  0.916193
  Mn2      1.0000 0.50000  0.00000  0.50000  Biso   1.000  Mn  0.916193
  Mn3      1.0000 0.09427  0.09427  0.00000  Biso   1.000  Mn  0.783340
  Mn4      1.0000 0.90573  0.90573  0.00000  Biso   1.000  Mn  0.783339
  Mn5      1.0000 0.90573  0.09427  0.00000  Biso   1.000  Mn  0.783339
  Mn6      1.0000 0.09427  0.90573  0.00000  Biso   1.000  Mn  0.783339
  N1       1.0000 0.05469  0.17932  0.12765  Biso   1.000  N  -0.256421
  N2       1.0000 0.03192  0.14304  0.07726  Biso   1.000  N  -0.069870
  N3       1.0000 0.94531  0.82068  0.12765  Biso   1.000  N  -0.256421
  N4       1.0000 0.96808  0.85696  0.07726  Biso   1.000  N  -0.069869
  N5       1.0000 0.82068  0.05469  0.12765  Biso   1.000  N  -0.256421
  N6       1.0000 0.85696  0.03192  0.07726  Biso   1.000  N  -0.069870
  N7       1.0000 0.17932  0.94531  0.12765  Biso   1.000  N  -0.256421
  N8       1.0000 0.14304  0.96808  0.07726  Biso   1.000  N  -0.069870
  N9       1.0000 0.94531  0.17932  0.87235  Biso   1.000  N  -0.256421
  N10      1.0000 0.96808  0.14304  0.92274  Biso   1.000  N  -0.069870
  N11      1.0000 0.05469  0.82068  0.87235  Biso   1.000  N  -0.256421
  N12      1.0000 0.03192  0.85696  0.92274  Biso   1.000  N  -0.069870
  N13      1.0000 0.17932  0.05469  0.87235  Biso   1.000  N  -0.256421
  N14      1.0000 0.14304  0.03192  0.92274  Biso   1.000  N  -0.069870
  N15      1.0000 0.82068  0.94531  0.87235  Biso   1.000  N  -0.256421
  N16      1.0000 0.85696  0.96808  0.92274  Biso   1.000  N  -0.069869
  N17      1.0000 0.94531  0.82068  0.87235  Biso   1.000  N  -0.256437
  N18      1.0000 0.96808  0.85696  0.92274  Biso   1.000  N  -0.069722
  N19      1.0000 0.05469  0.17932  0.87235  Biso   1.000  N  -0.256437
  N20      1.0000 0.03192  0.14304  0.92274  Biso   1.000  N  -0.069722
  N21      1.0000 0.17932  0.94531  0.87235  Biso   1.000  N  -0.256437
  N22      1.0000 0.14304  0.96808  0.92274  Biso   1.000  N  -0.069722
  N23      1.0000 0.82068  0.05469  0.87235  Biso   1.000  N  -0.256437
  N24      1.0000 0.85696  0.03192  0.92274  Biso   1.000  N  -0.069722
  N25      1.0000 0.05469  0.82068  0.12765  Biso   1.000  N  -0.256437
  N26      1.0000 0.03192  0.85696  0.07726  Biso   1.000  N  -0.069722
  N27      1.0000 0.94531  0.17932  0.12765  Biso   1.000  N  -0.256437
  N28      1.0000 0.96808  0.14304  0.07726  Biso   1.000  N  -0.069722
  N29      1.0000 0.82068  0.94531  0.12765  Biso   1.000  N  -0.256437
  N30      1.0000 0.85696  0.96808  0.07726  Biso   1.000  N  -0.069722
  N31      1.0000 0.17932  0.05469  0.12765  Biso   1.000  N  -0.256437
  N32      1.0000 0.14304  0.03192  0.07726  Biso   1.000  N  -0.069722
  N33      1.0000 0.00000  0.40160  0.50000  Biso   1.000  N  -0.326683
  N34      1.0000 0.00000  0.59840  0.50000  Biso   1.000  N  -0.326683
  N35      1.0000 0.59840  0.00000  0.50000  Biso   1.000  N  -0.326683
  N36      1.0000 0.40160  0.00000  0.50000  Biso   1.000  N  -0.326683
  N37      1.0000 0.00000  0.50000  0.40020  Biso   1.000  N  -0.324648
  N38      1.0000 0.50000  0.00000  0.40020  Biso   1.000  N  -0.324648
  N39      1.0000 0.00000  0.50000  0.59980  Biso   1.000  N  -0.324647
  N40      1.0000 0.50000  0.00000  0.59980  Biso   1.000  N  -0.324647
