data_image0
_cell_length_a       7.3753
_cell_length_b       18.1716
_cell_length_c       10.0338
_cell_angle_alpha    90
_cell_angle_beta     90
_cell_angle_gamma    90

_symmetry_space_group_name_H-M    "P 1"
_symmetry_int_tables_number       1

loop_
  _symmetry_equiv_pos_as_xyz
  'x, y, z'

loop_
  _atom_site_label
  _atom_site_occupancy
  _atom_site_fract_x
  _atom_site_fract_y
  _atom_site_fract_z
  _atom_site_thermal_displace_type
  _atom_site_B_iso_or_equiv
  _atom_site_type_symbol
  _atom_site_charge
  C1       1.0000 0.29860  0.37280  0.08950  Biso   1.000  C  0.604500
  C2       1.0000 0.20140  0.62720  0.58950  Biso   1.000  C  0.604499
  C3       1.0000 0.70140  0.87280  0.91050  Biso   1.000  C  0.604499
  C4       1.0000 0.79860  0.12720  0.41050  Biso   1.000  C  0.604499
  C5       1.0000 0.70140  0.62720  0.91050  Biso   1.000  C  0.604499
  C6       1.0000 0.79860  0.37280  0.41050  Biso   1.000  C  0.604500
  C7       1.0000 0.29860  0.12720  0.08950  Biso   1.000  C  0.604499
  C8       1.0000 0.20140  0.87280  0.58950  Biso   1.000  C  0.604499
  C9       1.0000 0.40160  0.43910  0.04390  Biso   1.000  C  -0.101752
  C10      1.0000 0.09840  0.56090  0.54390  Biso   1.000  C  -0.101751
  C11      1.0000 0.59840  0.93910  0.95610  Biso   1.000  C  -0.101750
  C12      1.0000 0.90160  0.06090  0.45610  Biso   1.000  C  -0.101751
  C13      1.0000 0.59840  0.56090  0.95610  Biso   1.000  C  -0.101750
  C14      1.0000 0.90160  0.43910  0.45610  Biso   1.000  C  -0.101751
  C15      1.0000 0.40160  0.06090  0.04390  Biso   1.000  C  -0.101752
  C16      1.0000 0.09840  0.93910  0.54390  Biso   1.000  C  -0.101751
  C17      1.0000 0.32970  0.48650  0.94670  Biso   1.000  C  0.292595
  C18      1.0000 0.17030  0.51350  0.44670  Biso   1.000  C  0.292596
  C19      1.0000 0.67030  0.98650  0.05330  Biso   1.000  C  0.292596
  C20      1.0000 0.82970  0.01350  0.55330  Biso   1.000  C  0.292596
  C21      1.0000 0.67030  0.51350  0.05330  Biso   1.000  C  0.292595
  C22      1.0000 0.82970  0.48650  0.55330  Biso   1.000  C  0.292596
  C23      1.0000 0.32970  0.01350  0.94670  Biso   1.000  C  0.292596
  C24      1.0000 0.17030  0.98650  0.44670  Biso   1.000  C  0.292596
  C25      1.0000 0.56410  0.45420  0.09520  Biso   1.000  C  -0.186580
  C26      1.0000 0.93590  0.54580  0.59520  Biso   1.000  C  -0.186580
  C27      1.0000 0.43590  0.95420  0.90480  Biso   1.000  C  -0.186579
  C28      1.0000 0.06410  0.04580  0.40480  Biso   1.000  C  -0.186580
  C29      1.0000 0.43590  0.54580  0.90480  Biso   1.000  C  -0.186580
  C30      1.0000 0.06410  0.45420  0.40480  Biso   1.000  C  -0.186580
  C31      1.0000 0.56410  0.04580  0.09520  Biso   1.000  C  -0.186580
  C32      1.0000 0.93590  0.95420  0.59520  Biso   1.000  C  -0.186580
  H1       1.0000 0.60990  0.42320  0.16350  Biso   1.000  H  0.131519
  H2       1.0000 0.89010  0.57680  0.66350  Biso   1.000  H  0.131519
  H3       1.0000 0.39010  0.92320  0.83650  Biso   1.000  H  0.131519
  H4       1.0000 0.10990  0.07680  0.33650  Biso   1.000  H  0.131519
  H5       1.0000 0.39010  0.57680  0.83650  Biso   1.000  H  0.131519
  H6       1.0000 0.10990  0.42320  0.33650  Biso   1.000  H  0.131519
  H7       1.0000 0.60990  0.07680  0.16350  Biso   1.000  H  0.131518
  H8       1.0000 0.89010  0.92320  0.66350  Biso   1.000  H  0.131519
  H9       1.0000 0.10300  0.51100  0.83830  Biso   1.000  H  0.333076
  H10      1.0000 0.39700  0.48900  0.33830  Biso   1.000  H  0.333077
  H11      1.0000 0.89700  0.01100  0.16170  Biso   1.000  H  0.333076
  H12      1.0000 0.60300  0.98900  0.66170  Biso   1.000  H  0.333076
  H13      1.0000 0.89700  0.48900  0.16170  Biso   1.000  H  0.333076
  H14      1.0000 0.60300  0.51100  0.66170  Biso   1.000  H  0.333077
  H15      1.0000 0.10300  0.98900  0.83830  Biso   1.000  H  0.333076
  H16      1.0000 0.39700  0.01100  0.33830  Biso   1.000  H  0.333076
  H17      1.0000 0.07820  0.44140  0.92100  Biso   1.000  H  0.349782
  H18      1.0000 0.42180  0.55860  0.42100  Biso   1.000  H  0.349783
  H19      1.0000 0.92180  0.94140  0.07900  Biso   1.000  H  0.349783
  H20      1.0000 0.57820  0.05860  0.57900  Biso   1.000  H  0.349784
  H21      1.0000 0.92180  0.55860  0.07900  Biso   1.000  H  0.349783
  H22      1.0000 0.57820  0.44140  0.57900  Biso   1.000  H  0.349784
  H23      1.0000 0.07820  0.05860  0.92100  Biso   1.000  H  0.349782
  H24      1.0000 0.42180  0.94140  0.42100  Biso   1.000  H  0.349783
  N1       1.0000 0.14600  0.47860  0.89500  Biso   1.000  N  -0.634186
  N2       1.0000 0.35400  0.52140  0.39500  Biso   1.000  N  -0.634186
  N3       1.0000 0.85400  0.97860  0.10500  Biso   1.000  N  -0.634184
  N4       1.0000 0.64600  0.02140  0.60500  Biso   1.000  N  -0.634186
  N5       1.0000 0.85400  0.52140  0.10500  Biso   1.000  N  -0.634186
  N6       1.0000 0.64600  0.47860  0.60500  Biso   1.000  N  -0.634186
  N7       1.0000 0.14600  0.02140  0.89500  Biso   1.000  N  -0.634185
  N8       1.0000 0.35400  0.97860  0.39500  Biso   1.000  N  -0.634186
  O1       1.0000 0.36530  0.33420  0.18030  Biso   1.000  O  -0.664642
  O2       1.0000 0.13470  0.66580  0.68030  Biso   1.000  O  -0.664642
  O3       1.0000 0.63470  0.83420  0.81970  Biso   1.000  O  -0.664641
  O4       1.0000 0.86530  0.16580  0.31970  Biso   1.000  O  -0.664640
  O5       1.0000 0.63470  0.66580  0.81970  Biso   1.000  O  -0.664640
  O6       1.0000 0.86530  0.33420  0.31970  Biso   1.000  O  -0.664641
  O7       1.0000 0.36530  0.16580  0.18030  Biso   1.000  O  -0.664642
  O8       1.0000 0.13470  0.83420  0.68030  Biso   1.000  O  -0.664643
  O9       1.0000 0.14310  0.35880  0.04440  Biso   1.000  O  -0.586697
  O10      1.0000 0.35690  0.64120  0.54440  Biso   1.000  O  -0.586699
  O11      1.0000 0.85690  0.85880  0.95560  Biso   1.000  O  -0.586701
  O12      1.0000 0.64310  0.14120  0.45560  Biso   1.000  O  -0.586701
  O13      1.0000 0.85690  0.64120  0.95560  Biso   1.000  O  -0.586701
  O14      1.0000 0.64310  0.35880  0.45560  Biso   1.000  O  -0.586700
  O15      1.0000 0.14310  0.14120  0.04440  Biso   1.000  O  -0.586698
  O16      1.0000 0.35690  0.85880  0.54440  Biso   1.000  O  -0.586698
  O17      1.0000 0.76130  0.25000  0.07290  Biso   1.000  O  -0.421120
  O18      1.0000 0.73870  0.75000  0.57290  Biso   1.000  O  -0.421110
  O19      1.0000 0.23870  0.75000  0.92710  Biso   1.000  O  -0.421113
  O20      1.0000 0.26130  0.25000  0.42710  Biso   1.000  O  -0.421113
  Sr1      1.0000 0.07409  0.25000  0.20093  Biso   1.000  Sr  1.345878
  Sr2      1.0000 0.42591  0.75000  0.70093  Biso   1.000  Sr  1.345874
  Sr3      1.0000 0.92591  0.75000  0.79907  Biso   1.000  Sr  1.345886
  Sr4      1.0000 0.57409  0.25000  0.29907  Biso   1.000  Sr  1.345893
