data_image0
_cell_length_a       10.3625
_cell_length_b       10.3625
_cell_length_c       13.8473
_cell_angle_alpha    90
_cell_angle_beta     90
_cell_angle_gamma    90

_symmetry_space_group_name_H-M    "P 1"
_symmetry_int_tables_number       1

loop_
  _symmetry_equiv_pos_as_xyz
  'x, y, z'

loop_
  _atom_site_label
  _atom_site_occupancy
  _atom_site_fract_x
  _atom_site_fract_y
  _atom_site_fract_z
  _atom_site_thermal_displace_type
  _atom_site_B_iso_or_equiv
  _atom_site_type_symbol
  _atom_site_charge
  C1       1.0000 0.00000  0.62660  0.50000  Biso   1.000  C  0.679602
  C2       1.0000 0.00000  0.37340  0.00000  Biso   1.000  C  0.679602
  C3       1.0000 0.37340  0.00000  0.25000  Biso   1.000  C  0.679602
  C4       1.0000 0.62660  0.00000  0.75000  Biso   1.000  C  0.679602
  C5       1.0000 0.92870  0.20930  0.67150  Biso   1.000  C  0.663291
  C6       1.0000 0.07130  0.79070  0.17150  Biso   1.000  C  0.663291
  C7       1.0000 0.79070  0.92870  0.42150  Biso   1.000  C  0.663291
  C8       1.0000 0.20930  0.07130  0.92150  Biso   1.000  C  0.663291
  C9       1.0000 0.07130  0.20930  0.32850  Biso   1.000  C  0.663291
  C10      1.0000 0.92870  0.79070  0.82850  Biso   1.000  C  0.663291
  C11      1.0000 0.20930  0.92870  0.57850  Biso   1.000  C  0.663291
  C12      1.0000 0.79070  0.07130  0.07850  Biso   1.000  C  0.663291
  C13      1.0000 0.00000  0.48440  0.50000  Biso   1.000  C  -0.014372
  C14      1.0000 0.00000  0.51560  0.00000  Biso   1.000  C  -0.014372
  C15      1.0000 0.51560  0.00000  0.25000  Biso   1.000  C  -0.014372
  C16      1.0000 0.48440  0.00000  0.75000  Biso   1.000  C  -0.014372
  C17      1.0000 0.96290  0.41690  0.58190  Biso   1.000  C  -0.097419
  C18      1.0000 0.03710  0.58310  0.08190  Biso   1.000  C  -0.097419
  C19      1.0000 0.58310  0.96290  0.33190  Biso   1.000  C  -0.097419
  C20      1.0000 0.41690  0.03710  0.83190  Biso   1.000  C  -0.097419
  C21      1.0000 0.03710  0.41690  0.41810  Biso   1.000  C  -0.097419
  C22      1.0000 0.96290  0.58310  0.91810  Biso   1.000  C  -0.097419
  C23      1.0000 0.41690  0.96290  0.66810  Biso   1.000  C  -0.097419
  C24      1.0000 0.58310  0.03710  0.16810  Biso   1.000  C  -0.097419
  C25      1.0000 0.96360  0.28340  0.58270  Biso   1.000  C  -0.024121
  C26      1.0000 0.03640  0.71660  0.08270  Biso   1.000  C  -0.024121
  C27      1.0000 0.71660  0.96360  0.33270  Biso   1.000  C  -0.024121
  C28      1.0000 0.28340  0.03640  0.83270  Biso   1.000  C  -0.024121
  C29      1.0000 0.03640  0.28340  0.41730  Biso   1.000  C  -0.024121
  C30      1.0000 0.96360  0.71660  0.91730  Biso   1.000  C  -0.024121
  C31      1.0000 0.28340  0.96360  0.66730  Biso   1.000  C  -0.024121
  C32      1.0000 0.71660  0.03640  0.16730  Biso   1.000  C  -0.024121
  C33      1.0000 0.00000  0.21690  0.50000  Biso   1.000  C  -0.119178
  C34      1.0000 0.00000  0.78310  0.00000  Biso   1.000  C  -0.119178
  C35      1.0000 0.78310  0.00000  0.25000  Biso   1.000  C  -0.119178
  C36      1.0000 0.21690  0.00000  0.75000  Biso   1.000  C  -0.119178
  Gd1      1.0000 0.87726  0.87726  0.62500  Biso   1.000  Gd  2.097103
  Gd2      1.0000 0.12274  0.12274  0.12500  Biso   1.000  Gd  2.097103
  Gd3      1.0000 0.12274  0.87726  0.37500  Biso   1.000  Gd  2.097103
  Gd4      1.0000 0.87726  0.12274  0.87500  Biso   1.000  Gd  2.097103
  H1       1.0000 0.93740  0.46180  0.63680  Biso   1.000  H  0.136557
  H2       1.0000 0.06260  0.53820  0.13680  Biso   1.000  H  0.136557
  H3       1.0000 0.53820  0.93740  0.38680  Biso   1.000  H  0.136557
  H4       1.0000 0.46180  0.06260  0.88680  Biso   1.000  H  0.136557
  H5       1.0000 0.06260  0.46180  0.36320  Biso   1.000  H  0.136556
  H6       1.0000 0.93740  0.53820  0.86320  Biso   1.000  H  0.136557
  H7       1.0000 0.46180  0.93740  0.61320  Biso   1.000  H  0.136557
  H8       1.0000 0.53820  0.06260  0.11320  Biso   1.000  H  0.136557
  H9       1.0000 0.00000  0.12720  0.50000  Biso   1.000  H  0.105136
  H10      1.0000 0.00000  0.87280  0.00000  Biso   1.000  H  0.105136
  H11      1.0000 0.87280  0.00000  0.25000  Biso   1.000  H  0.105136
  H12      1.0000 0.12720  0.00000  0.75000  Biso   1.000  H  0.105136
  O1       1.0000 0.91870  0.68420  0.55250  Biso   1.000  O  -0.674358
  O2       1.0000 0.08130  0.31580  0.05250  Biso   1.000  O  -0.674358
  O3       1.0000 0.31580  0.91870  0.30250  Biso   1.000  O  -0.674358
  O4       1.0000 0.68420  0.08130  0.80250  Biso   1.000  O  -0.674358
  O5       1.0000 0.08130  0.68420  0.44750  Biso   1.000  O  -0.674358
  O6       1.0000 0.91870  0.31580  0.94750  Biso   1.000  O  -0.674358
  O7       1.0000 0.68420  0.91870  0.69750  Biso   1.000  O  -0.674358
  O8       1.0000 0.31580  0.08130  0.19750  Biso   1.000  O  -0.674358
  O9       1.0000 0.91770  0.26920  0.74900  Biso   1.000  O  -0.637767
  O10      1.0000 0.08230  0.73080  0.24900  Biso   1.000  O  -0.637767
  O11      1.0000 0.73080  0.91770  0.49900  Biso   1.000  O  -0.637767
  O12      1.0000 0.26920  0.08230  0.99900  Biso   1.000  O  -0.637767
  O13      1.0000 0.08230  0.26920  0.25100  Biso   1.000  O  -0.637767
  O14      1.0000 0.91770  0.73080  0.75100  Biso   1.000  O  -0.637767
  O15      1.0000 0.26920  0.91770  0.50100  Biso   1.000  O  -0.637767
  O16      1.0000 0.73080  0.08230  0.00100  Biso   1.000  O  -0.637767
  O17      1.0000 0.91440  0.09130  0.66950  Biso   1.000  O  -0.740327
  O18      1.0000 0.08560  0.90870  0.16950  Biso   1.000  O  -0.740327
  O19      1.0000 0.90870  0.91440  0.41950  Biso   1.000  O  -0.740327
  O20      1.0000 0.09130  0.08560  0.91950  Biso   1.000  O  -0.740327
  O21      1.0000 0.08560  0.09130  0.33050  Biso   1.000  O  -0.740327
  O22      1.0000 0.91440  0.90870  0.83050  Biso   1.000  O  -0.740327
  O23      1.0000 0.09130  0.91440  0.58050  Biso   1.000  O  -0.740327
  O24      1.0000 0.90870  0.08560  0.08050  Biso   1.000  O  -0.740327
