
##########################################################################
#               Crystallographic Information Format file
#               Produced by PyCifRW module
#
#  This is a CIF file.  CIF has been adopted by the International
#  Union of Crystallography as the standard for data archiving and
#  transmission.
#
#  For information on this file format, follow the CIF links at
#  http://www.iucr.org
##########################################################################

data_image0

_cell_length_a                          7.0303
_cell_length_b                          12.5619
_cell_length_c                          15.6408
_cell_angle_alpha                       90
_cell_angle_beta                        90
_cell_angle_gamma                       100.918
_symmetry_space_group_name_H-M          'P 1'
_symmetry_int_tables_number             1
loop_
  _symmetry_equiv_pos_as_xyz
         'x, y, z' 
loop_
  _atom_site_label
  _atom_site_occupancy
  _atom_site_fract_x
  _atom_site_fract_y
  _atom_site_fract_z
  _atom_site_thermal_displace_type
  _atom_site_B_iso_or_equiv
  _atom_site_type_symbol
  _atom_site_charge
         C1        1.0000    0.08010   0.25000   0.82370   Biso      1.000     C          -0.055858000000000005         
         C2        1.0000    0.57930   0.22870   0.16360   Biso      1.000     C          -0.054402           
         C3        1.0000    0.39270   0.25170   0.17050   Biso      1.000     C          -0.172251           
         C4        1.0000    0.31290   0.26200   0.25040   Biso      1.000     C          -0.090793           
         C5        1.0000    0.41990   0.25000   0.32370   Biso      1.000     C          -0.055563999999999995         
         C6        1.0000    0.10150   0.00590   0.31320   Biso      1.000     C          0.269687  
         C7        1.0000    0.39460   0.97750   0.31410   Biso      1.000     C          0.603546  
         C8        1.0000    0.89300   0.27180   0.81720   Biso      1.000     C          -0.177395           
         C9        1.0000    0.81370   0.28270   0.73710   Biso      1.000     C          -0.077129           
         C10       1.0000    0.92070   0.27130   0.66360   Biso      1.000     C          -0.053634           
         C11       1.0000    0.10730   0.24830   0.67050   Biso      1.000     C          -0.171074           
         C12       1.0000    0.18710   0.23800   0.75040   Biso      1.000     C          -0.090628           
         C13       1.0000    0.39850   0.49410   0.81320   Biso      1.000     C          0.271947  
         C14       1.0000    0.10540   0.52250   0.81410   Biso      1.000     C          0.602963  
         C15       1.0000    0.39300   0.77180   0.68280   Biso      1.000     C          -0.175643           
         C16       1.0000    0.31370   0.78270   0.76290   Biso      1.000     C          -0.07753  
         C17       1.0000    0.42070   0.77130   0.83640   Biso      1.000     C          -0.054401           
         C18       1.0000    0.60730   0.74830   0.82950   Biso      1.000     C          -0.172251           
         C19       1.0000    0.68710   0.73800   0.74960   Biso      1.000     C          -0.090793           
         C20       1.0000    0.58010   0.75000   0.67630   Biso      1.000     C          -0.055563999999999995         
         C21       1.0000    0.89850   0.99410   0.68680   Biso      1.000     C          0.269685  
         C22       1.0000    0.60540   0.02250   0.68590   Biso      1.000     C          0.603546  
         C23       1.0000    0.10700   0.72820   0.18280   Biso      1.000     C          -0.177394           
         C24       1.0000    0.18630   0.71730   0.26290   Biso      1.000     C          -0.07712999999999999          
         C25       1.0000    0.07930   0.72870   0.33640   Biso      1.000     C          -0.053634           
         C26       1.0000    0.89270   0.75170   0.32950   Biso      1.000     C          -0.171075           
         C27       1.0000    0.81290   0.76200   0.24960   Biso      1.000     C          -0.090628           
         C28       1.0000    0.91990   0.75000   0.17630   Biso      1.000     C          -0.05586  
         C29       1.0000    0.60150   0.50590   0.18680   Biso      1.000     C          0.271943  
         C30       1.0000    0.89460   0.47750   0.18590   Biso      1.000     C          0.602963  
         C31       1.0000    0.68630   0.21730   0.23710   Biso      1.000     C          -0.077529           
         C32       1.0000    0.60700   0.22820   0.31720   Biso      1.000     C          -0.175643           
         Cu1       1.0000    0.50000   0.00000   0.50000   Biso      1.000     Cu          0.9524959999999999  
         Cu2       1.0000    0.00000   0.00000   0.50000   Biso      1.000     Cu          0.9772559999999999  
         Cu3       1.0000    0.00000   0.50000   0.00000   Biso      1.000     Cu          0.953997  
         Cu4       1.0000    0.50000   0.50000   0.00000   Biso      1.000     Cu          0.978031  
         H1        1.0000    0.31140   0.22310   0.75510   Biso      1.000     H          0.10883399999999999           
         H2        1.0000    0.86780   0.27900   0.61000   Biso      1.000     H          0.120242  
         H3        1.0000    0.68950   0.29760   0.73240   Biso      1.000     H          0.116433  
         H4        1.0000    0.98800   0.22800   0.06900   Biso      1.000     H          0.549428  
         H5        1.0000    0.04100   0.26900   0.41100   Biso      1.000     H          0.5084810000000001  
         H6        1.0000    0.57780   0.95240   0.23450   Biso      1.000     H          0.384693  
         H7        1.0000    0.64160   0.94590   0.32490   Biso      1.000     H          0.355248  
         H8        1.0000    0.36620   0.25650   0.37740   Biso      1.000     H          0.11032   
         H9        1.0000    0.18860   0.27690   0.25510   Biso      1.000     H          0.108953  
         H10       1.0000    0.63220   0.22100   0.11000   Biso      1.000     H          0.119898  
         H11       1.0000    0.81050   0.20240   0.23240   Biso      1.000     H          0.116442  
         H12       1.0000    0.35840   0.05410   0.67510   Biso      1.000     H          0.355247  
         H13       1.0000    0.13380   0.24350   0.87740   Biso      1.000     H          0.11011099999999999           
         H14       1.0000    0.85840   0.55410   0.82490   Biso      1.000     H          0.354749  
         H15       1.0000    0.42220   0.04760   0.76550   Biso      1.000     H          0.38469200000000003           
         H16       1.0000    0.45900   0.23100   0.91100   Biso      1.000     H          0.508716  
         H17       1.0000    0.95900   0.73100   0.58900   Biso      1.000     H          0.5084810000000001  
         H18       1.0000    0.01200   0.77200   0.93100   Biso      1.000     H          0.549429  
         H19       1.0000    0.31050   0.70240   0.26760   Biso      1.000     H          0.116434  
         H20       1.0000    0.92220   0.54760   0.73450   Biso      1.000     H          0.3851    
         H21       1.0000    0.68860   0.77690   0.24490   Biso      1.000     H          0.10883499999999999           
         H22       1.0000    0.86620   0.75650   0.12260   Biso      1.000     H          0.11011099999999999           
         H23       1.0000    0.14160   0.44590   0.17510   Biso      1.000     H          0.35475   
         H24       1.0000    0.07780   0.45240   0.26550   Biso      1.000     H          0.385101  
         H25       1.0000    0.13220   0.72100   0.39000   Biso      1.000     H          0.120243  
         H26       1.0000    0.48800   0.72800   0.43100   Biso      1.000     H          0.54937   
         H27       1.0000    0.63380   0.74350   0.62260   Biso      1.000     H          0.11032   
         H28       1.0000    0.51200   0.27200   0.56900   Biso      1.000     H          0.549369  
         H29       1.0000    0.18950   0.79760   0.76760   Biso      1.000     H          0.116442  
         H30       1.0000    0.36780   0.77900   0.89000   Biso      1.000     H          0.119898  
         H31       1.0000    0.81140   0.72310   0.74490   Biso      1.000     H          0.108953  
         H32       1.0000    0.54100   0.76900   0.08900   Biso      1.000     H          0.508716  
         N1        1.0000    0.25150   0.50980   0.76070   Biso      1.000     N          -0.420919           
         N2        1.0000    0.84650   0.99790   0.60630   Biso      1.000     N          -0.22944499999999998          
         N3        1.0000    0.75150   0.00980   0.73930   Biso      1.000     N          -0.41872299999999996          
         N4        1.0000    0.44460   0.04370   0.71160   Biso      1.000     N          -0.646624           
         N5        1.0000    0.65350   0.50210   0.10630   Biso      1.000     N          -0.234619           
         N6        1.0000    0.84350   0.48560   0.10570   Biso      1.000     N          -0.30706500000000003          
         N7        1.0000    0.74850   0.49020   0.23930   Biso      1.000     N          -0.420919           
         N8        1.0000    0.15650   0.51440   0.89430   Biso      1.000     N          -0.30706700000000003          
         N9        1.0000    0.05540   0.45630   0.21160   Biso      1.000     N          -0.648911           
         N10       1.0000    0.65650   0.01440   0.60570   Biso      1.000     N          -0.309651           
         N11       1.0000    0.34650   0.49790   0.89370   Biso      1.000     N          -0.234619           
         N12       1.0000    0.94460   0.54370   0.78840   Biso      1.000     N          -0.648914           
         N13       1.0000    0.24850   0.99020   0.26070   Biso      1.000     N          -0.418721           
         N14       1.0000    0.34350   0.98560   0.39430   Biso      1.000     N          -0.309645           
         N15       1.0000    0.15350   0.00210   0.39370   Biso      1.000     N          -0.22945  
         N16       1.0000    0.55540   0.95630   0.28840   Biso      1.000     N          -0.646623           
         O1        1.0000    0.78860   0.40130   0.94283   Biso      1.000     O          -0.765675           
         O2        1.0000    0.20600   0.11360   0.54676   Biso      1.000     O          -0.79086  
         O3        1.0000    0.18690   0.30820   0.50697   Biso      1.000     O          -0.6793710000000001           
         O4        1.0000    0.45350   0.26620   0.60320   Biso      1.000     O          -0.784045           
         O5        1.0000    0.04510   0.74850   0.61529   Biso      1.000     O          -0.7500680000000001           
         O6        1.0000    0.31410   0.70680   0.52049   Biso      1.000     O          -0.686582           
         O7        1.0000    0.70600   0.61360   0.95324   Biso      1.000     O          -0.786338           
         O8        1.0000    0.68690   0.80820   0.99303   Biso      1.000     O          -0.681956           
         O9        1.0000    0.95350   0.76620   0.89680   Biso      1.000     O          -0.7833180000000001           
         O10       1.0000    0.45490   0.75150   0.11529   Biso      1.000     O          -0.747583           
         O11       1.0000    0.18590   0.79320   0.02049   Biso      1.000     O          -0.686369           
         O12       1.0000    0.21140   0.59870   0.05717   Biso      1.000     O          -0.765674           
         O13       1.0000    0.79400   0.88640   0.45324   Biso      1.000     O          -0.7908569999999999           
         O14       1.0000    0.28860   0.90130   0.55717   Biso      1.000     O          -0.769985           
         O15       1.0000    0.81410   0.20680   0.97951   Biso      1.000     O          -0.6863670000000001           
         O16       1.0000    0.04650   0.23380   0.10320   Biso      1.000     O          -0.783319           
         O17       1.0000    0.31310   0.19180   0.00697   Biso      1.000     O          -0.681958           
         O18       1.0000    0.29400   0.38640   0.04676   Biso      1.000     O          -0.786338           
         O19       1.0000    0.71140   0.09870   0.44283   Biso      1.000     O          -0.769986           
         O20       1.0000    0.68590   0.29320   0.47951   Biso      1.000     O          -0.686584           
         O21       1.0000    0.95490   0.25150   0.38471   Biso      1.000     O          -0.750069           
         O22       1.0000    0.81310   0.69180   0.49303   Biso      1.000     O          -0.6793680000000001           
         O23       1.0000    0.54510   0.24850   0.88471   Biso      1.000     O          -0.747584           
         O24       1.0000    0.54650   0.73380   0.39680   Biso      1.000     O          -0.784044           
         P1        1.0000    0.76071   0.76823   0.42586   Biso      1.000     P          1.293521  
         P2        1.0000    0.24084   0.71636   0.08620   Biso      1.000     P          1.303395  
         P3        1.0000    0.73929   0.73177   0.92586   Biso      1.000     P          1.292973  
         P4        1.0000    0.25916   0.78364   0.58620   Biso      1.000     P          1.3040690000000001  
         P5        1.0000    0.23929   0.23177   0.57414   Biso      1.000     P          1.293524  
         P6        1.0000    0.75916   0.28364   0.91380   Biso      1.000     P          1.303396  
         P7        1.0000    0.26071   0.26823   0.07414   Biso      1.000     P          1.2929709999999999  
         P8        1.0000    0.74084   0.21636   0.41380   Biso      1.000     P          1.304068 