data_image0
_cell_length_a       18.64
_cell_length_b       18.64
_cell_length_c       18.64
_cell_angle_alpha    90
_cell_angle_beta     90
_cell_angle_gamma    90

_symmetry_space_group_name_H-M    "P 1"
_symmetry_int_tables_number       1

loop_
  _symmetry_equiv_pos_as_xyz
  'x, y, z'

loop_
  _atom_site_label
  _atom_site_occupancy
  _atom_site_fract_x
  _atom_site_fract_y
  _atom_site_fract_z
  _atom_site_thermal_displace_type
  _atom_site_B_iso_or_equiv
  _atom_site_type_symbol
  _atom_site_charge
  C1       1.0000 0.92745  0.67745  0.37500  Biso   1.000  C  0.058016
  C2       1.0000 0.98367  0.73367  0.37500  Biso   1.000  C  0.256401
  C3       1.0000 0.57255  0.32255  0.87500  Biso   1.000  C  0.053785
  C4       1.0000 0.51633  0.26633  0.87500  Biso   1.000  C  0.262403
  C5       1.0000 0.07255  0.17745  0.12500  Biso   1.000  C  0.060643
  C6       1.0000 0.01633  0.23367  0.12500  Biso   1.000  C  0.253980
  C7       1.0000 0.42745  0.82255  0.62500  Biso   1.000  C  0.060614
  C8       1.0000 0.48367  0.76633  0.62500  Biso   1.000  C  0.254011
  C9       1.0000 0.37500  0.92745  0.67745  Biso   1.000  C  0.052961
  C10      1.0000 0.37500  0.98367  0.73367  Biso   1.000  C  0.262929
  C11      1.0000 0.87500  0.57255  0.32255  Biso   1.000  C  0.058035
  C12      1.0000 0.87500  0.51633  0.26633  Biso   1.000  C  0.256395
  C13      1.0000 0.12500  0.07255  0.17745  Biso   1.000  C  0.060526
  C14      1.0000 0.12500  0.01633  0.23367  Biso   1.000  C  0.253992
  C15      1.0000 0.62500  0.42745  0.82255  Biso   1.000  C  0.060197
  C16      1.0000 0.62500  0.48367  0.76633  Biso   1.000  C  0.254466
  C17      1.0000 0.67745  0.37500  0.92745  Biso   1.000  C  0.060175
  C18      1.0000 0.73367  0.37500  0.98367  Biso   1.000  C  0.254511
  C19      1.0000 0.32255  0.87500  0.57255  Biso   1.000  C  0.060496
  C20      1.0000 0.26633  0.87500  0.51633  Biso   1.000  C  0.254090
  C21      1.0000 0.17745  0.12500  0.07255  Biso   1.000  C  0.052967
  C22      1.0000 0.23367  0.12500  0.01633  Biso   1.000  C  0.263271
  C23      1.0000 0.82255  0.62500  0.42745  Biso   1.000  C  0.058056
  C24      1.0000 0.76633  0.62500  0.48367  Biso   1.000  C  0.256342
  C25      1.0000 0.92650  0.62500  0.32350  Biso   1.000  C  -0.165399
  C26      1.0000 0.57350  0.37500  0.82350  Biso   1.000  C  -0.165874
  C27      1.0000 0.07350  0.12500  0.17650  Biso   1.000  C  -0.160533
  C28      1.0000 0.42650  0.87500  0.67650  Biso   1.000  C  -0.165262
  C29      1.0000 0.32350  0.92650  0.62500  Biso   1.000  C  -0.165557
  C30      1.0000 0.82350  0.57350  0.37500  Biso   1.000  C  -0.165359
  C31      1.0000 0.17650  0.07350  0.12500  Biso   1.000  C  -0.165355
  C32      1.0000 0.67650  0.42650  0.87500  Biso   1.000  C  -0.162092
  C33      1.0000 0.62500  0.32350  0.92650  Biso   1.000  C  -0.165850
  C34      1.0000 0.37500  0.82350  0.57350  Biso   1.000  C  -0.160847
  C35      1.0000 0.12500  0.17650  0.07350  Biso   1.000  C  -0.165175
  C36      1.0000 0.87500  0.67650  0.42650  Biso   1.000  C  -0.165385
  Co1      1.0000 0.06672  0.93328  0.43328  Biso   1.000  Co  0.593596
  Co2      1.0000 0.43328  0.06672  0.93328  Biso   1.000  Co  0.655937
  Co3      1.0000 0.93328  0.43328  0.06672  Biso   1.000  Co  0.594105
  Co4      1.0000 0.56672  0.56672  0.56672  Biso   1.000  Co  0.594256
  Co5      1.0000 0.18328  0.81672  0.31672  Biso   1.000  Co  0.593591
  Co6      1.0000 0.31672  0.18328  0.81672  Biso   1.000  Co  0.661171
  Co7      1.0000 0.68328  0.68328  0.68328  Biso   1.000  Co  0.594243
  Co8      1.0000 0.81672  0.31672  0.18328  Biso   1.000  Co  0.594111
  H1       1.0000 0.96180  0.62500  0.28820  Biso   1.000  H  0.121090
  H2       1.0000 0.53820  0.37500  0.78820  Biso   1.000  H  0.120805
  H3       1.0000 0.03820  0.12500  0.21180  Biso   1.000  H  0.122612
  H4       1.0000 0.46180  0.87500  0.71180  Biso   1.000  H  0.121067
  H5       1.0000 0.28820  0.96180  0.62500  Biso   1.000  H  0.120697
  H6       1.0000 0.78820  0.53820  0.37500  Biso   1.000  H  0.121110
  H7       1.0000 0.21180  0.03820  0.12500  Biso   1.000  H  0.120757
  H8       1.0000 0.71180  0.46180  0.87500  Biso   1.000  H  0.122330
  H9       1.0000 0.62500  0.28820  0.96180  Biso   1.000  H  0.120814
  H10      1.0000 0.37500  0.78820  0.53820  Biso   1.000  H  0.122579
  H11      1.0000 0.12500  0.21180  0.03820  Biso   1.000  H  0.121062
  H12      1.0000 0.87500  0.71180  0.46180  Biso   1.000  H  0.121095
  N1       1.0000 0.03855  0.82939  0.39679  Biso   1.000  N  -0.074858
  N2       1.0000 0.97808  0.79449  0.41263  Biso   1.000  N  -0.265289
  N3       1.0000 0.46145  0.17061  0.89679  Biso   1.000  N  -0.086386
  N4       1.0000 0.52192  0.20551  0.91263  Biso   1.000  N  -0.253272
  N5       1.0000 0.96145  0.32939  0.10321  Biso   1.000  N  -0.073408
  N6       1.0000 0.02192  0.29449  0.08737  Biso   1.000  N  -0.267216
  N7       1.0000 0.53855  0.67061  0.60321  Biso   1.000  N  -0.073428
  N8       1.0000 0.47808  0.70551  0.58737  Biso   1.000  N  -0.265400
  N9       1.0000 0.39679  0.03855  0.82939  Biso   1.000  N  -0.086216
  N10      1.0000 0.41263  0.97808  0.79449  Biso   1.000  N  -0.252467
  N11      1.0000 0.89679  0.46145  0.17061  Biso   1.000  N  -0.074885
  N12      1.0000 0.91263  0.52192  0.20551  Biso   1.000  N  -0.265295
  N13      1.0000 0.10321  0.96145  0.32939  Biso   1.000  N  -0.073360
  N14      1.0000 0.08737  0.02192  0.29449  Biso   1.000  N  -0.265406
  N15      1.0000 0.60321  0.53855  0.67061  Biso   1.000  N  -0.073757
  N16      1.0000 0.58737  0.47808  0.70551  Biso   1.000  N  -0.267152
  N17      1.0000 0.82939  0.39679  0.03855  Biso   1.000  N  -0.073689
  N18      1.0000 0.79449  0.41263  0.97808  Biso   1.000  N  -0.265330
  N19      1.0000 0.17061  0.89679  0.46145  Biso   1.000  N  -0.073478
  N20      1.0000 0.20551  0.91263  0.52192  Biso   1.000  N  -0.267426
  N21      1.0000 0.32939  0.10321  0.96145  Biso   1.000  N  -0.083030
  N22      1.0000 0.29449  0.08737  0.02192  Biso   1.000  N  -0.249308
  N23      1.0000 0.67061  0.60321  0.53855  Biso   1.000  N  -0.074896
  N24      1.0000 0.70551  0.58737  0.47808  Biso   1.000  N  -0.265264
  N25      1.0000 0.07939  0.78855  0.35321  Biso   1.000  N  -0.074839
  N26      1.0000 0.04449  0.72808  0.33737  Biso   1.000  N  -0.265304
  N27      1.0000 0.42061  0.21145  0.85321  Biso   1.000  N  -0.086900
  N28      1.0000 0.45551  0.27192  0.83737  Biso   1.000  N  -0.253971
  N29      1.0000 0.57939  0.71145  0.64679  Biso   1.000  N  -0.073452
  N30      1.0000 0.54449  0.77192  0.66263  Biso   1.000  N  -0.267172
  N31      1.0000 0.92061  0.28855  0.14679  Biso   1.000  N  -0.073330
  N32      1.0000 0.95551  0.22808  0.16263  Biso   1.000  N  -0.265393
  N33      1.0000 0.28855  0.14679  0.92061  Biso   1.000  N  -0.086815
  N34      1.0000 0.22808  0.16263  0.95551  Biso   1.000  N  -0.252758
  N35      1.0000 0.71145  0.64679  0.57939  Biso   1.000  N  -0.074866
  N36      1.0000 0.77192  0.66263  0.54449  Biso   1.000  N  -0.265304
  N37      1.0000 0.21145  0.85321  0.42061  Biso   1.000  N  -0.073358
  N38      1.0000 0.27192  0.83737  0.45551  Biso   1.000  N  -0.265388
  N39      1.0000 0.78855  0.35321  0.07939  Biso   1.000  N  -0.073733
  N40      1.0000 0.72808  0.33737  0.04449  Biso   1.000  N  -0.267123
  N41      1.0000 0.64679  0.57939  0.71145  Biso   1.000  N  -0.073673
  N42      1.0000 0.66263  0.54449  0.77192  Biso   1.000  N  -0.265321
  N43      1.0000 0.14679  0.92061  0.28855  Biso   1.000  N  -0.073404
  N44      1.0000 0.16263  0.95551  0.22808  Biso   1.000  N  -0.267415
  N45      1.0000 0.35321  0.07939  0.78855  Biso   1.000  N  -0.084130
  N46      1.0000 0.33737  0.04449  0.72808  Biso   1.000  N  -0.249651
  N47      1.0000 0.85321  0.42061  0.21145  Biso   1.000  N  -0.074834
  N48      1.0000 0.83737  0.45551  0.27192  Biso   1.000  N  -0.265255
