
##########################################################################
#               Crystallographic Information Format file
#               Produced by PyCifRW module
#
#  This is a CIF file.  CIF has been adopted by the International
#  Union of Crystallography as the standard for data archiving and
#  transmission.
#
#  For information on this file format, follow the CIF links at
#  http://www.iucr.org
##########################################################################

data_image0

_cell_length_a                          13.5792
_cell_length_b                          13.8958
_cell_length_c                          20.7478
_cell_angle_alpha                       90
_cell_angle_beta                        104.882
_cell_angle_gamma                       90
_symmetry_space_group_name_H-M          'P 1'
_symmetry_int_tables_number             1
loop_
  _symmetry_equiv_pos_as_xyz
         'x, y, z' 
loop_
  _atom_site_label
  _atom_site_occupancy
  _atom_site_fract_x
  _atom_site_fract_y
  _atom_site_fract_z
  _atom_site_thermal_displace_type
  _atom_site_B_iso_or_equiv
  _atom_site_type_symbol
  _atom_site_charge
         C1        1.0000    0.70490   0.67000   0.13940   Biso      1.000     C          -0.092285           
         C2        1.0000    0.68860   0.42730   0.27460   Biso      1.000     C          -0.142145           
         C3        1.0000    0.19010   0.49390   0.45050   Biso      1.000     C          0.642191  
         C4        1.0000    0.90350   0.45250   0.40200   Biso      1.000     C          -0.083294           
         C5        1.0000    0.00690   0.44350   0.43240   Biso      1.000     C          -0.095408           
         C6        1.0000    0.07660   0.50510   0.41660   Biso      1.000     C          -0.011016           
         C7        1.0000    0.04420   0.57420   0.36920   Biso      1.000     C          -0.093181           
         C8        1.0000    0.94130   0.58330   0.33750   Biso      1.000     C          -0.09742200000000001          
         C9        1.0000    0.87070   0.52290   0.35392   Biso      1.000     C          -0.146033           
         C10       1.0000    0.64080   0.83150   0.09340   Biso      1.000     C          0.623955  
         C11       1.0000    0.72870   0.60190   0.18970   Biso      1.000     C          -0.094164           
         C12       1.0000    0.95580   0.42580   0.63080   Biso      1.000     C          -0.093191           
         C13       1.0000    0.66920   0.75940   0.14964   Biso      1.000     C          -0.006706999999999999         
         C14       1.0000    0.65980   0.78270   0.21300   Biso      1.000     C          -0.101133           
         C15       1.0000    0.68260   0.71570   0.26390   Biso      1.000     C          -0.08955  
         C16       1.0000    0.74910   0.36080   0.25400   Biso      1.000     C          -0.09776699999999999          
         C17       1.0000    0.71590   0.62560   0.25269   Biso      1.000     C          -0.142286           
         C18       1.0000    0.41730   0.91700   0.24620   Biso      1.000     C          -0.083595           
         C19       1.0000    0.46010   0.84420   0.28850   Biso      1.000     C          -0.09637799999999999          
         C20       1.0000    0.39930   0.77720   0.30990   Biso      1.000     C          -0.009608           
         C21       1.0000    0.29430   0.78530   0.28710   Biso      1.000     C          -0.097073           
         C22       1.0000    0.25090   0.86080   0.24600   Biso      1.000     C          -0.097768           
         C23       1.0000    0.31140   0.92730   0.22540   Biso      1.000     C          -0.14214200000000002          
         C24       1.0000    0.80990   0.99390   0.04950   Biso      1.000     C          0.642191  
         C25       1.0000    0.09650   0.95250   0.09800   Biso      1.000     C          -0.083294           
         C26       1.0000    0.99310   0.94350   0.06760   Biso      1.000     C          -0.095408           
         C27       1.0000    0.92340   0.00510   0.08340   Biso      1.000     C          -0.011016           
         C28       1.0000    0.95580   0.07420   0.13080   Biso      1.000     C          -0.093181           
         C29       1.0000    0.05870   0.08330   0.16250   Biso      1.000     C          -0.09742200000000001          
         C30       1.0000    0.12930   0.02290   0.14608   Biso      1.000     C          -0.146033           
         C31       1.0000    0.35920   0.33150   0.40660   Biso      1.000     C          0.623955  
         C32       1.0000    0.44710   0.69980   0.35920   Biso      1.000     C          0.629791  
         C33       1.0000    0.27130   0.10190   0.31030   Biso      1.000     C          -0.094164           
         C34       1.0000    0.70570   0.28530   0.21290   Biso      1.000     C          -0.09707400000000001          
         C35       1.0000    0.53990   0.34420   0.21150   Biso      1.000     C          -0.096385           
         C36       1.0000    0.35920   0.16850   0.90660   Biso      1.000     C          0.623955  
         C37       1.0000    0.27130   0.39810   0.81030   Biso      1.000     C          -0.094164           
         C38       1.0000    0.29510   0.33000   0.86060   Biso      1.000     C          -0.092285           
         C39       1.0000    0.33080   0.24060   0.85036   Biso      1.000     C          -0.006706999999999999         
         C40       1.0000    0.34020   0.21730   0.78700   Biso      1.000     C          -0.101133           
         C41       1.0000    0.31740   0.28430   0.73610   Biso      1.000     C          -0.08955  
         C42       1.0000    0.28410   0.37440   0.74731   Biso      1.000     C          -0.142286           
         C43       1.0000    0.55290   0.30020   0.64080   Biso      1.000     C          0.629791  
         C44       1.0000    0.58270   0.08300   0.75380   Biso      1.000     C          -0.083595           
         C45       1.0000    0.53990   0.15580   0.71150   Biso      1.000     C          -0.09637799999999999          
         C46       1.0000    0.60070   0.22280   0.69010   Biso      1.000     C          -0.009608           
         C47       1.0000    0.70570   0.21470   0.71290   Biso      1.000     C          -0.097073           
         C48       1.0000    0.74910   0.13920   0.75400   Biso      1.000     C          -0.097768           
         C49       1.0000    0.68860   0.07270   0.77460   Biso      1.000     C          -0.14214100000000002          
         C50       1.0000    0.60070   0.27720   0.19010   Biso      1.000     C          -0.009606           
         C51       1.0000    0.19010   0.00610   0.95050   Biso      1.000     C          0.642191  
         C52       1.0000    0.00690   0.05650   0.93240   Biso      1.000     C          -0.095408           
         C53       1.0000    0.07660   0.99490   0.91660   Biso      1.000     C          -0.011016           
         C54       1.0000    0.04420   0.92580   0.86920   Biso      1.000     C          -0.093181           
         C55       1.0000    0.94130   0.91670   0.83750   Biso      1.000     C          -0.09742200000000001          
         C56       1.0000    0.87070   0.97710   0.85392   Biso      1.000     C          -0.146033           
         C57       1.0000    0.64080   0.66850   0.59340   Biso      1.000     C          0.623955  
         C58       1.0000    0.72870   0.89810   0.68970   Biso      1.000     C          -0.094164           
         C59       1.0000    0.70490   0.83000   0.63940   Biso      1.000     C          -0.092285           
         C60       1.0000    0.66920   0.74060   0.64964   Biso      1.000     C          -0.006706999999999999         
         C61       1.0000    0.65980   0.71730   0.71300   Biso      1.000     C          -0.101133           
         C62       1.0000    0.68260   0.78430   0.76390   Biso      1.000     C          -0.08955  
         C63       1.0000    0.71590   0.87440   0.75269   Biso      1.000     C          -0.142286           
         C64       1.0000    0.55290   0.19980   0.14080   Biso      1.000     C          0.629791  
         C65       1.0000    0.58270   0.41700   0.25380   Biso      1.000     C          -0.083588           
         C66       1.0000    0.90350   0.04750   0.90200   Biso      1.000     C          -0.083294           
         C67       1.0000    0.29510   0.17000   0.36060   Biso      1.000     C          -0.092285           
         C68       1.0000    0.33080   0.25940   0.35036   Biso      1.000     C          -0.006706999999999999         
         C69       1.0000    0.34020   0.28270   0.28700   Biso      1.000     C          -0.101133           
         C70       1.0000    0.44710   0.80020   0.85920   Biso      1.000     C          0.629791  
         C71       1.0000    0.41730   0.58300   0.74620   Biso      1.000     C          -0.083595           
         C72       1.0000    0.46010   0.65580   0.78850   Biso      1.000     C          -0.09637799999999999          
         C73       1.0000    0.39930   0.72280   0.80990   Biso      1.000     C          -0.009608           
         C74       1.0000    0.29430   0.71470   0.78710   Biso      1.000     C          -0.097073           
         C75       1.0000    0.25090   0.63920   0.74600   Biso      1.000     C          -0.097768           
         C76       1.0000    0.31140   0.57270   0.72540   Biso      1.000     C          -0.14214100000000002          
         C77       1.0000    0.80990   0.50610   0.54950   Biso      1.000     C          0.6421899999999999  
         C78       1.0000    0.09650   0.54750   0.59800   Biso      1.000     C          -0.083294           
         C79       1.0000    0.99310   0.55650   0.56760   Biso      1.000     C          -0.09540900000000001          
         C80       1.0000    0.92340   0.49490   0.58340   Biso      1.000     C          -0.011008           
         C81       1.0000    0.12930   0.47710   0.64608   Biso      1.000     C          -0.146035           
         C82       1.0000    0.05870   0.41670   0.66250   Biso      1.000     C          -0.097419           
         C83       1.0000    0.31740   0.21570   0.23610   Biso      1.000     C          -0.08955  
         C84       1.0000    0.28410   0.12560   0.24731   Biso      1.000     C          -0.142286           
         H1        1.0000    0.32480   0.26780   0.69310   Biso      1.000     H          0.10589200000000001           
         H2        1.0000    0.53220   0.83940   0.30350   Biso      1.000     H          0.115481  
         H3        1.0000    0.25180   0.73870   0.29990   Biso      1.000     H          0.1221    
         H4        1.0000    0.17880   0.86670   0.23190   Biso      1.000     H          0.10731700000000001           
         H5        1.0000    0.14430   0.91070   0.08610   Biso      1.000     H          0.116507  
         H6        1.0000    0.97020   0.89430   0.03550   Biso      1.000     H          0.11845399999999999           
         H7        1.0000    0.90770   0.11620   0.14230   Biso      1.000     H          0.122474  
         H8        1.0000    0.08070   0.13140   0.19560   Biso      1.000     H          0.10694300000000001           
         H9        1.0000    0.24680   0.04020   0.31830   Biso      1.000     H          0.111667  
         H10       1.0000    0.28640   0.15430   0.40340   Biso      1.000     H          0.11913599999999999           
         H11       1.0000    0.36250   0.34520   0.27860   Biso      1.000     H          0.11845699999999999           
         H12       1.0000    0.43290   0.97380   0.07290   Biso      1.000     H          0.396671  
         H13       1.0000    0.45990   0.96080   0.23070   Biso      1.000     H          0.12020499999999999           
         H14       1.0000    0.24680   0.45980   0.81830   Biso      1.000     H          0.111667  
         H15       1.0000    0.08070   0.36860   0.69560   Biso      1.000     H          0.10694300000000001           
         H16       1.0000    0.90770   0.38380   0.64230   Biso      1.000     H          0.122475  
         H17       1.0000    0.97020   0.60570   0.53550   Biso      1.000     H          0.11845399999999999           
         H18       1.0000    0.14430   0.58930   0.58610   Biso      1.000     H          0.116507  
         H19       1.0000    0.17880   0.63330   0.73190   Biso      1.000     H          0.10731700000000001           
         H20       1.0000    0.25180   0.76130   0.79990   Biso      1.000     H          0.1221    
         H21       1.0000    0.53220   0.66060   0.80350   Biso      1.000     H          0.115481  
         H22       1.0000    0.45990   0.53920   0.73070   Biso      1.000     H          0.12020499999999999           
         H23       1.0000    0.32480   0.23220   0.19310   Biso      1.000     H          0.10589200000000001           
         H24       1.0000    0.56710   0.47380   0.42710   Biso      1.000     H          0.396671  
         H25       1.0000    0.67520   0.73220   0.30690   Biso      1.000     H          0.10589200000000001           
         H26       1.0000    0.63750   0.84520   0.22140   Biso      1.000     H          0.11845699999999999           
         H27       1.0000    0.43290   0.52620   0.57290   Biso      1.000     H          0.396671  
         H28       1.0000    0.54010   0.03920   0.76930   Biso      1.000     H          0.12020499999999999           
         H29       1.0000    0.46780   0.16060   0.69650   Biso      1.000     H          0.115481  
         H30       1.0000    0.74820   0.26130   0.70010   Biso      1.000     H          0.1221    
         H31       1.0000    0.82120   0.13330   0.76810   Biso      1.000     H          0.10731700000000001           
         H32       1.0000    0.85570   0.08930   0.91390   Biso      1.000     H          0.116507  
         H33       1.0000    0.02980   0.10570   0.96450   Biso      1.000     H          0.11845399999999999           
         H34       1.0000    0.09230   0.88380   0.85770   Biso      1.000     H          0.122474  
         H35       1.0000    0.91930   0.86860   0.80440   Biso      1.000     H          0.10694300000000001           
         H36       1.0000    0.75320   0.95980   0.68170   Biso      1.000     H          0.111667  
         H37       1.0000    0.71360   0.84570   0.59660   Biso      1.000     H          0.11913599999999999           
         H38       1.0000    0.36250   0.15480   0.77860   Biso      1.000     H          0.11845699999999999           
         H39       1.0000    0.63750   0.65480   0.72140   Biso      1.000     H          0.11845699999999999           
         H40       1.0000    0.56710   0.02620   0.92710   Biso      1.000     H          0.396671  
         H41       1.0000    0.54010   0.46080   0.26930   Biso      1.000     H          0.12020499999999999           
         H42       1.0000    0.46780   0.33940   0.19650   Biso      1.000     H          0.115481  
         H43       1.0000    0.74820   0.23870   0.20010   Biso      1.000     H          0.1221    
         H44       1.0000    0.82120   0.36670   0.26810   Biso      1.000     H          0.10731700000000001           
         H45       1.0000    0.28640   0.34570   0.90340   Biso      1.000     H          0.11913699999999999           
         H46       1.0000    0.02980   0.39430   0.46450   Biso      1.000     H          0.11845399999999999           
         H47       1.0000    0.09230   0.61620   0.35770   Biso      1.000     H          0.122474  
         H48       1.0000    0.91930   0.63140   0.30440   Biso      1.000     H          0.10694300000000001           
         H49       1.0000    0.75320   0.54020   0.18170   Biso      1.000     H          0.111667  
         H50       1.0000    0.71360   0.65430   0.09660   Biso      1.000     H          0.11913599999999999           
         H51       1.0000    0.67520   0.76780   0.80690   Biso      1.000     H          0.10589200000000001           
         H52       1.0000    0.85570   0.41070   0.41390   Biso      1.000     H          0.116507  
         Mg1       1.0000    0.34614   0.13395   0.04953   Biso      1.000     Mg          1.469814  
         Mg2       1.0000    0.59493   0.45701   0.55170   Biso      1.000     Mg          1.433325  
         Mg3       1.0000    0.34614   0.36605   0.54953   Biso      1.000     Mg          1.469814  
         Mg4       1.0000    0.40507   0.95701   0.94830   Biso      1.000     Mg          1.433325  
         Mg5       1.0000    0.65386   0.86605   0.95047   Biso      1.000     Mg          1.469814  
         Mg6       1.0000    0.40507   0.54299   0.44830   Biso      1.000     Mg          1.433325  
         Mg7       1.0000    0.65386   0.63395   0.45047   Biso      1.000     Mg          1.469814  
         Mg8       1.0000    0.59493   0.04299   0.05170   Biso      1.000     Mg          1.433325  
         O1        1.0000    0.63050   0.79700   0.03527   Biso      1.000     O          -0.686488           
         O2        1.0000    0.67880   0.93770   0.86843   Biso      1.000     O          -0.7317819999999999           
         O3        1.0000    0.62850   0.58310   0.60737   Biso      1.000     O          -0.631678           
         O4        1.0000    0.63050   0.70300   0.53527   Biso      1.000     O          -0.686488           
         O5        1.0000    0.21430   0.07740   0.98864   Biso      1.000     O          -0.6898310000000001           
         O6        1.0000    0.24820   0.94420   0.93793   Biso      1.000     O          -0.653283           
         O7        1.0000    0.60840   0.37090   0.63478   Biso      1.000     O          -0.641208           
         O8        1.0000    0.46160   0.28570   0.61031   Biso      1.000     O          -0.6666340000000001           
         O9        1.0000    0.36950   0.20300   0.96473   Biso      1.000     O          -0.686488           
         O10       1.0000    0.32120   0.43770   0.63157   Biso      1.000     O          -0.7317819999999999           
         O11       1.0000    0.37150   0.08310   0.89263   Biso      1.000     O          -0.631678           
         O12       1.0000    0.56004   0.52380   0.46023   Biso      1.000     O          -1.149458           
         O13       1.0000    0.78570   0.57740   0.51136   Biso      1.000     O          -0.6898310000000001           
         O14       1.0000    0.75180   0.44420   0.56207   Biso      1.000     O          -0.653283           
         O15       1.0000    0.39160   0.87090   0.86522   Biso      1.000     O          -0.641208           
         O16       1.0000    0.56004   0.97620   0.96023   Biso      1.000     O          -1.149458           
         O17       1.0000    0.46160   0.21430   0.11031   Biso      1.000     O          -0.6666340000000001           
         O18       1.0000    0.43996   0.47620   0.53977   Biso      1.000     O          -1.149458           
         O19       1.0000    0.24820   0.55580   0.43793   Biso      1.000     O          -0.653283           
         O20       1.0000    0.32120   0.06230   0.13157   Biso      1.000     O          -0.7317819999999999           
         O21       1.0000    0.37150   0.41690   0.39263   Biso      1.000     O          -0.631678           
         O22       1.0000    0.36950   0.29700   0.46473   Biso      1.000     O          -0.686488           
         O23       1.0000    0.78570   0.92260   0.01136   Biso      1.000     O          -0.6898310000000001           
         O24       1.0000    0.60840   0.12910   0.13478   Biso      1.000     O          -0.641208           
         O25       1.0000    0.39160   0.62910   0.36522   Biso      1.000     O          -0.641208           
         O26       1.0000    0.75180   0.05580   0.06207   Biso      1.000     O          -0.653283           
         O27       1.0000    0.43996   0.02380   0.03977   Biso      1.000     O          -1.149458           
         O28       1.0000    0.67880   0.56230   0.36843   Biso      1.000     O          -0.7317819999999999           
         O29       1.0000    0.62850   0.91690   0.10737   Biso      1.000     O          -0.631678           
         O30       1.0000    0.53840   0.78570   0.88969   Biso      1.000     O          -0.6666340000000001           
         O31       1.0000    0.21430   0.42260   0.48864   Biso      1.000     O          -0.6898310000000001           
         O32       1.0000    0.53840   0.71430   0.38969   Biso      1.000     O          -0.6666340000000001           
         P1        1.0000    0.26404   0.03705   0.18150   Biso      1.000     P          0.8490280000000001  
         P2        1.0000    0.73596   0.53705   0.31850   Biso      1.000     P          0.8490280000000001  
         P3        1.0000    0.73596   0.96295   0.81850   Biso      1.000     P          0.8490280000000001  
         P4        1.0000    0.26404   0.46295   0.68150   Biso      1.000     P          0.8490280000000001 