data_image0
_cell_length_a       16.269
_cell_length_b       20.73
_cell_length_c       14.9828
_cell_angle_alpha    90
_cell_angle_beta     90
_cell_angle_gamma    90

_symmetry_space_group_name_H-M    "P 1"
_symmetry_int_tables_number       1

loop_
  _symmetry_equiv_pos_as_xyz
  'x, y, z'

loop_
  _atom_site_label
  _atom_site_occupancy
  _atom_site_fract_x
  _atom_site_fract_y
  _atom_site_fract_z
  _atom_site_thermal_displace_type
  _atom_site_B_iso_or_equiv
  _atom_site_type_symbol
  _atom_site_charge
  C1       1.0000 0.21676  0.43159  0.85965  Biso   1.000  C  0.114582
  C2       1.0000 0.01301  0.25237  0.82923  Biso   1.000  C  0.116206
  C3       1.0000 0.00873  0.43887  0.61480  Biso   1.000  C  0.557159
  C4       1.0000 0.11238  0.43109  0.73708  Biso   1.000  C  -0.172647
  C5       1.0000 0.11790  0.34013  0.83717  Biso   1.000  C  -0.208457
  C6       1.0000 0.04588  0.40358  0.69346  Biso   1.000  C  0.002140
  C7       1.0000 0.26342  0.47995  0.81973  Biso   1.000  C  -0.192455
  C8       1.0000 0.89653  0.18997  0.87230  Biso   1.000  C  0.061178
  C9       1.0000 0.28958  0.45400  0.99439  Biso   1.000  C  0.069480
  C10      1.0000 0.23233  0.41806  0.94887  Biso   1.000  C  -0.194851
  C11      1.0000 0.06093  0.20081  0.85807  Biso   1.000  C  -0.202450
  C12      1.0000 0.14918  0.39956  0.80973  Biso   1.000  C  0.063224
  C13      1.0000 0.31767  0.51508  0.87108  Biso   1.000  C  0.096473
  C14      1.0000 0.92910  0.24571  0.83650  Biso   1.000  C  -0.189387
  C15      1.0000 0.02392  0.14682  0.89202  Biso   1.000  C  0.111268
  C16      1.0000 0.04894  0.31327  0.79505  Biso   1.000  C  0.068826
  C17      1.0000 0.01383  0.34546  0.72235  Biso   1.000  C  -0.165137
  C18      1.0000 0.28324  0.06841  0.85965  Biso   1.000  C  0.114582
  C19      1.0000 0.48699  0.24763  0.82923  Biso   1.000  C  0.116206
  C20      1.0000 0.49127  0.06113  0.61480  Biso   1.000  C  0.557159
  C21      1.0000 0.38762  0.06891  0.73708  Biso   1.000  C  -0.172646
  C22      1.0000 0.38210  0.15987  0.83717  Biso   1.000  C  -0.208457
  C23      1.0000 0.45412  0.09642  0.69346  Biso   1.000  C  0.002140
  C24      1.0000 0.23658  0.02005  0.81973  Biso   1.000  C  -0.192455
  C25      1.0000 0.60347  0.31003  0.87230  Biso   1.000  C  0.061177
  C26      1.0000 0.21042  0.04600  0.99439  Biso   1.000  C  0.069480
  C27      1.0000 0.26767  0.08194  0.94887  Biso   1.000  C  -0.194852
  C28      1.0000 0.43907  0.29919  0.85807  Biso   1.000  C  -0.202450
  C29      1.0000 0.35082  0.10044  0.80973  Biso   1.000  C  0.063224
  C30      1.0000 0.18233  0.98492  0.87108  Biso   1.000  C  0.096473
  C31      1.0000 0.57090  0.25429  0.83650  Biso   1.000  C  -0.189387
  C32      1.0000 0.47608  0.35318  0.89202  Biso   1.000  C  0.111267
  C33      1.0000 0.45106  0.18673  0.79505  Biso   1.000  C  0.068826
  C34      1.0000 0.48617  0.15454  0.72235  Biso   1.000  C  -0.165137
  C35      1.0000 0.78324  0.93159  0.64035  Biso   1.000  C  0.114583
  C36      1.0000 0.98699  0.75237  0.67077  Biso   1.000  C  0.116206
  C37      1.0000 0.99127  0.93887  0.88520  Biso   1.000  C  0.557159
  C38      1.0000 0.88762  0.93109  0.76292  Biso   1.000  C  -0.172647
  C39      1.0000 0.88210  0.84013  0.66283  Biso   1.000  C  -0.208457
  C40      1.0000 0.95412  0.90358  0.80654  Biso   1.000  C  0.002140
  C41      1.0000 0.73658  0.97995  0.68027  Biso   1.000  C  -0.192455
  C42      1.0000 0.10347  0.68997  0.62770  Biso   1.000  C  0.061177
  C43      1.0000 0.71042  0.95400  0.50561  Biso   1.000  C  0.069480
  C44      1.0000 0.76767  0.91806  0.55113  Biso   1.000  C  -0.194851
  C45      1.0000 0.93907  0.70081  0.64193  Biso   1.000  C  -0.202450
  C46      1.0000 0.85082  0.89956  0.69027  Biso   1.000  C  0.063224
  C47      1.0000 0.68233  0.01508  0.62892  Biso   1.000  C  0.096473
  C48      1.0000 0.07090  0.74571  0.66350  Biso   1.000  C  -0.189387
  C49      1.0000 0.97608  0.64682  0.60798  Biso   1.000  C  0.111267
  C50      1.0000 0.95106  0.81327  0.70495  Biso   1.000  C  0.068826
  C51      1.0000 0.98617  0.84546  0.77765  Biso   1.000  C  -0.165137
  C52      1.0000 0.71676  0.56841  0.64035  Biso   1.000  C  0.114582
  C53      1.0000 0.51301  0.74763  0.67077  Biso   1.000  C  0.116206
  C54      1.0000 0.50873  0.56113  0.88520  Biso   1.000  C  0.557159
  C55      1.0000 0.61238  0.56891  0.76292  Biso   1.000  C  -0.172647
  C56      1.0000 0.61790  0.65987  0.66283  Biso   1.000  C  -0.208457
  C57      1.0000 0.54588  0.59642  0.80654  Biso   1.000  C  0.002140
  C58      1.0000 0.76342  0.52005  0.68027  Biso   1.000  C  -0.192455
  C59      1.0000 0.39653  0.81003  0.62770  Biso   1.000  C  0.061177
  C60      1.0000 0.78958  0.54600  0.50561  Biso   1.000  C  0.069480
  C61      1.0000 0.73233  0.58194  0.55113  Biso   1.000  C  -0.194851
  C62      1.0000 0.56093  0.79919  0.64193  Biso   1.000  C  -0.202450
  C63      1.0000 0.64918  0.60044  0.69027  Biso   1.000  C  0.063224
  C64      1.0000 0.81767  0.48492  0.62892  Biso   1.000  C  0.096473
  C65      1.0000 0.42910  0.75429  0.66350  Biso   1.000  C  -0.189388
  C66      1.0000 0.52392  0.85318  0.60798  Biso   1.000  C  0.111267
  C67      1.0000 0.54894  0.68673  0.70495  Biso   1.000  C  0.068826
  C68      1.0000 0.51383  0.65454  0.77765  Biso   1.000  C  -0.165137
  C69      1.0000 0.78324  0.56841  0.14035  Biso   1.000  C  0.114582
  C70      1.0000 0.98699  0.74763  0.17077  Biso   1.000  C  0.116206
  C71      1.0000 0.99127  0.56113  0.38520  Biso   1.000  C  0.557159
  C72      1.0000 0.88762  0.56891  0.26292  Biso   1.000  C  -0.172647
  C73      1.0000 0.88210  0.65987  0.16283  Biso   1.000  C  -0.208458
  C74      1.0000 0.95412  0.59642  0.30654  Biso   1.000  C  0.002140
  C75      1.0000 0.73658  0.52005  0.18027  Biso   1.000  C  -0.192455
  C76      1.0000 0.10347  0.81003  0.12770  Biso   1.000  C  0.061177
  C77      1.0000 0.71042  0.54600  0.00561  Biso   1.000  C  0.069480
  C78      1.0000 0.76767  0.58194  0.05113  Biso   1.000  C  -0.194852
  C79      1.0000 0.93907  0.79919  0.14193  Biso   1.000  C  -0.202451
  C80      1.0000 0.85082  0.60044  0.19027  Biso   1.000  C  0.063223
  C81      1.0000 0.68233  0.48492  0.12892  Biso   1.000  C  0.096473
  C82      1.0000 0.07090  0.75429  0.16350  Biso   1.000  C  -0.189389
  C83      1.0000 0.97608  0.85318  0.10798  Biso   1.000  C  0.111267
  C84      1.0000 0.95106  0.68673  0.20495  Biso   1.000  C  0.068826
  C85      1.0000 0.98617  0.65454  0.27765  Biso   1.000  C  -0.165137
  C86      1.0000 0.71676  0.93159  0.14035  Biso   1.000  C  0.114582
  C87      1.0000 0.51301  0.75237  0.17077  Biso   1.000  C  0.116205
  C88      1.0000 0.50873  0.93887  0.38520  Biso   1.000  C  0.557159
  C89      1.0000 0.61238  0.93109  0.26292  Biso   1.000  C  -0.172647
  C90      1.0000 0.61790  0.84013  0.16283  Biso   1.000  C  -0.208458
  C91      1.0000 0.54588  0.90358  0.30654  Biso   1.000  C  0.002140
  C92      1.0000 0.76342  0.97995  0.18027  Biso   1.000  C  -0.192455
  C93      1.0000 0.39653  0.68997  0.12770  Biso   1.000  C  0.061177
  C94      1.0000 0.78958  0.95400  0.00561  Biso   1.000  C  0.069480
  C95      1.0000 0.73233  0.91806  0.05113  Biso   1.000  C  -0.194852
  C96      1.0000 0.56093  0.70081  0.14193  Biso   1.000  C  -0.202451
  C97      1.0000 0.64918  0.89956  0.19027  Biso   1.000  C  0.063223
  C98      1.0000 0.81767  0.01508  0.12892  Biso   1.000  C  0.096473
  C99      1.0000 0.42910  0.74571  0.16350  Biso   1.000  C  -0.189389
  C100     1.0000 0.52392  0.64682  0.10798  Biso   1.000  C  0.111267
  C101     1.0000 0.54894  0.81327  0.20495  Biso   1.000  C  0.068826
  C102     1.0000 0.51383  0.84546  0.27765  Biso   1.000  C  -0.165137
  C103     1.0000 0.21676  0.06841  0.35965  Biso   1.000  C  0.114582
  C104     1.0000 0.01301  0.24763  0.32923  Biso   1.000  C  0.116205
  C105     1.0000 0.00873  0.06113  0.11480  Biso   1.000  C  0.557159
  C106     1.0000 0.11238  0.06891  0.23708  Biso   1.000  C  -0.172648
  C107     1.0000 0.11790  0.15987  0.33717  Biso   1.000  C  -0.208458
  C108     1.0000 0.04588  0.09642  0.19346  Biso   1.000  C  0.002140
  C109     1.0000 0.26342  0.02005  0.31973  Biso   1.000  C  -0.192455
  C110     1.0000 0.89653  0.31003  0.37230  Biso   1.000  C  0.061177
  C111     1.0000 0.28958  0.04600  0.49439  Biso   1.000  C  0.069480
  C112     1.0000 0.23233  0.08194  0.44887  Biso   1.000  C  -0.194852
  C113     1.0000 0.06093  0.29919  0.35807  Biso   1.000  C  -0.202451
  C114     1.0000 0.14918  0.10044  0.30973  Biso   1.000  C  0.063223
  C115     1.0000 0.31767  0.98492  0.37108  Biso   1.000  C  0.096473
  C116     1.0000 0.92910  0.25429  0.33650  Biso   1.000  C  -0.189389
  C117     1.0000 0.02392  0.35318  0.39202  Biso   1.000  C  0.111267
  C118     1.0000 0.04894  0.18673  0.29505  Biso   1.000  C  0.068826
  C119     1.0000 0.01383  0.15454  0.22235  Biso   1.000  C  -0.165137
  C120     1.0000 0.28324  0.43159  0.35965  Biso   1.000  C  0.114583
  C121     1.0000 0.48699  0.25237  0.32923  Biso   1.000  C  0.116206
  C122     1.0000 0.49127  0.43887  0.11480  Biso   1.000  C  0.557159
  C123     1.0000 0.38762  0.43109  0.23708  Biso   1.000  C  -0.172648
  C124     1.0000 0.38210  0.34013  0.33717  Biso   1.000  C  -0.208458
  C125     1.0000 0.45412  0.40358  0.19346  Biso   1.000  C  0.002140
  C126     1.0000 0.23658  0.47995  0.31973  Biso   1.000  C  -0.192455
  C127     1.0000 0.60347  0.18997  0.37230  Biso   1.000  C  0.061177
  C128     1.0000 0.21042  0.45400  0.49439  Biso   1.000  C  0.069480
  C129     1.0000 0.26767  0.41806  0.44887  Biso   1.000  C  -0.194852
  C130     1.0000 0.43907  0.20081  0.35807  Biso   1.000  C  -0.202450
  C131     1.0000 0.35082  0.39956  0.30973  Biso   1.000  C  0.063224
  C132     1.0000 0.18233  0.51508  0.37108  Biso   1.000  C  0.096473
  C133     1.0000 0.57090  0.24571  0.33650  Biso   1.000  C  -0.189389
  C134     1.0000 0.47608  0.14682  0.39202  Biso   1.000  C  0.111267
  C135     1.0000 0.45106  0.31327  0.29505  Biso   1.000  C  0.068826
  C136     1.0000 0.48617  0.34546  0.22235  Biso   1.000  C  -0.165137
  Cu1      1.0000 0.10619  0.56630  0.53314  Biso   1.000  Cu  0.334643
  Cu2      1.0000 0.39381  0.93370  0.53314  Biso   1.000  Cu  0.334642
  Cu3      1.0000 0.89381  0.06630  0.96686  Biso   1.000  Cu  0.334643
  Cu4      1.0000 0.60619  0.43370  0.96686  Biso   1.000  Cu  0.334643
  Cu5      1.0000 0.89381  0.43370  0.46686  Biso   1.000  Cu  0.334643
  Cu6      1.0000 0.60619  0.06630  0.46686  Biso   1.000  Cu  0.334641
  Cu7      1.0000 0.10619  0.93370  0.03314  Biso   1.000  Cu  0.334643
  Cu8      1.0000 0.39381  0.56630  0.03314  Biso   1.000  Cu  0.334643
  H1       1.0000 0.13320  0.47160  0.71770  Biso   1.000  H  0.108457
  H2       1.0000 0.14360  0.31760  0.88490  Biso   1.000  H  0.113139
  H3       1.0000 0.25790  0.48860  0.75780  Biso   1.000  H  0.126776
  H4       1.0000 0.83850  0.18650  0.87730  Biso   1.000  H  0.081031
  H5       1.0000 0.30030  0.44330  0.05490  Biso   1.000  H  0.088058
  H6       1.0000 0.20360  0.38420  0.97820  Biso   1.000  H  0.129105
  H7       1.0000 0.11910  0.20310  0.85420  Biso   1.000  H  0.121178
  H8       1.0000 0.34700  0.54940  0.84360  Biso   1.000  H  0.097869
  H9       1.0000 0.89380  0.27930  0.81700  Biso   1.000  H  0.125246
  H10      1.0000 0.05770  0.11190  0.91060  Biso   1.000  H  0.097922
  H11      1.0000 0.96770  0.32730  0.69270  Biso   1.000  H  0.120644
  H12      1.0000 0.36680  0.02840  0.71770  Biso   1.000  H  0.108457
  H13      1.0000 0.35640  0.18240  0.88490  Biso   1.000  H  0.113139
  H14      1.0000 0.24210  0.01140  0.75780  Biso   1.000  H  0.126775
  H15      1.0000 0.66150  0.31350  0.87730  Biso   1.000  H  0.081031
  H16      1.0000 0.19970  0.05670  0.05490  Biso   1.000  H  0.088058
  H17      1.0000 0.29640  0.11580  0.97820  Biso   1.000  H  0.129104
  H18      1.0000 0.38090  0.29690  0.85420  Biso   1.000  H  0.121178
  H19      1.0000 0.15300  0.95060  0.84360  Biso   1.000  H  0.097869
  H20      1.0000 0.60620  0.22070  0.81700  Biso   1.000  H  0.125246
  H21      1.0000 0.44230  0.38810  0.91060  Biso   1.000  H  0.097922
  H22      1.0000 0.53230  0.17270  0.69270  Biso   1.000  H  0.120644
  H23      1.0000 0.86680  0.97160  0.78230  Biso   1.000  H  0.108458
  H24      1.0000 0.85640  0.81760  0.61510  Biso   1.000  H  0.113140
  H25      1.0000 0.74210  0.98860  0.74220  Biso   1.000  H  0.126776
  H26      1.0000 0.16150  0.68650  0.62270  Biso   1.000  H  0.081031
  H27      1.0000 0.69970  0.94330  0.44510  Biso   1.000  H  0.088058
  H28      1.0000 0.79640  0.88420  0.52180  Biso   1.000  H  0.129105
  H29      1.0000 0.88090  0.70310  0.64580  Biso   1.000  H  0.121179
  H30      1.0000 0.65300  0.04940  0.65640  Biso   1.000  H  0.097869
  H31      1.0000 0.10620  0.77930  0.68300  Biso   1.000  H  0.125246
  H32      1.0000 0.94230  0.61190  0.58940  Biso   1.000  H  0.097922
  H33      1.0000 0.03230  0.82730  0.80730  Biso   1.000  H  0.120644
  H34      1.0000 0.63320  0.52840  0.78230  Biso   1.000  H  0.108457
  H35      1.0000 0.64360  0.68240  0.61510  Biso   1.000  H  0.113139
  H36      1.0000 0.75790  0.51140  0.74220  Biso   1.000  H  0.126776
  H37      1.0000 0.33850  0.81350  0.62270  Biso   1.000  H  0.081031
  H38      1.0000 0.80030  0.55670  0.44510  Biso   1.000  H  0.088058
  H39      1.0000 0.70360  0.61580  0.52180  Biso   1.000  H  0.129104
  H40      1.0000 0.61910  0.79690  0.64580  Biso   1.000  H  0.121178
  H41      1.0000 0.84700  0.45060  0.65640  Biso   1.000  H  0.097869
  H42      1.0000 0.39380  0.72070  0.68300  Biso   1.000  H  0.125246
  H43      1.0000 0.55770  0.88810  0.58940  Biso   1.000  H  0.097922
  H44      1.0000 0.46770  0.67270  0.80730  Biso   1.000  H  0.120644
  H45      1.0000 0.86680  0.52840  0.28230  Biso   1.000  H  0.108457
  H46      1.0000 0.85640  0.68240  0.11510  Biso   1.000  H  0.113139
  H47      1.0000 0.74210  0.51140  0.24220  Biso   1.000  H  0.126776
  H48      1.0000 0.16150  0.81350  0.12270  Biso   1.000  H  0.081030
  H49      1.0000 0.69970  0.55670  0.94510  Biso   1.000  H  0.088058
  H50      1.0000 0.79640  0.61580  0.02180  Biso   1.000  H  0.129104
  H51      1.0000 0.88090  0.79690  0.14580  Biso   1.000  H  0.121178
  H52      1.0000 0.65300  0.45060  0.15640  Biso   1.000  H  0.097869
  H53      1.0000 0.10620  0.72070  0.18300  Biso   1.000  H  0.125246
  H54      1.0000 0.94230  0.88810  0.08940  Biso   1.000  H  0.097922
  H55      1.0000 0.03230  0.67270  0.30730  Biso   1.000  H  0.120645
  H56      1.0000 0.63320  0.97160  0.28230  Biso   1.000  H  0.108457
  H57      1.0000 0.64360  0.81760  0.11510  Biso   1.000  H  0.113139
  H58      1.0000 0.75790  0.98860  0.24220  Biso   1.000  H  0.126775
  H59      1.0000 0.33850  0.68650  0.12270  Biso   1.000  H  0.081030
  H60      1.0000 0.80030  0.94330  0.94510  Biso   1.000  H  0.088058
  H61      1.0000 0.70360  0.88420  0.02180  Biso   1.000  H  0.129105
  H62      1.0000 0.61910  0.70310  0.14580  Biso   1.000  H  0.121178
  H63      1.0000 0.84700  0.04940  0.15640  Biso   1.000  H  0.097869
  H64      1.0000 0.39380  0.77930  0.18300  Biso   1.000  H  0.125246
  H65      1.0000 0.55770  0.61190  0.08940  Biso   1.000  H  0.097922
  H66      1.0000 0.46770  0.82730  0.30730  Biso   1.000  H  0.120644
  H67      1.0000 0.13320  0.02840  0.21770  Biso   1.000  H  0.108458
  H68      1.0000 0.14360  0.18240  0.38490  Biso   1.000  H  0.113139
  H69      1.0000 0.25790  0.01140  0.25780  Biso   1.000  H  0.126775
  H70      1.0000 0.83850  0.31350  0.37730  Biso   1.000  H  0.081030
  H71      1.0000 0.30030  0.05670  0.55490  Biso   1.000  H  0.088058
  H72      1.0000 0.20360  0.11580  0.47820  Biso   1.000  H  0.129105
  H73      1.0000 0.11910  0.29690  0.35420  Biso   1.000  H  0.121178
  H74      1.0000 0.34700  0.95060  0.34360  Biso   1.000  H  0.097869
  H75      1.0000 0.89380  0.22070  0.31700  Biso   1.000  H  0.125245
  H76      1.0000 0.05770  0.38810  0.41060  Biso   1.000  H  0.097922
  H77      1.0000 0.96770  0.17270  0.19270  Biso   1.000  H  0.120644
  H78      1.0000 0.36680  0.47160  0.21770  Biso   1.000  H  0.108458
  H79      1.0000 0.35640  0.31760  0.38490  Biso   1.000  H  0.113139
  H80      1.0000 0.24210  0.48860  0.25780  Biso   1.000  H  0.126776
  H81      1.0000 0.66150  0.18650  0.37730  Biso   1.000  H  0.081030
  H82      1.0000 0.19970  0.44330  0.55490  Biso   1.000  H  0.088058
  H83      1.0000 0.29640  0.38420  0.47820  Biso   1.000  H  0.129105
  H84      1.0000 0.38090  0.20310  0.35420  Biso   1.000  H  0.121178
  H85      1.0000 0.15300  0.54940  0.34360  Biso   1.000  H  0.097869
  H86      1.0000 0.60620  0.27930  0.31700  Biso   1.000  H  0.125246
  H87      1.0000 0.44230  0.11190  0.41060  Biso   1.000  H  0.097922
  H88      1.0000 0.53230  0.32730  0.19270  Biso   1.000  H  0.120645
  N1       1.0000 0.33118  0.50331  0.95802  Biso   1.000  N  -0.199036
  N2       1.0000 0.94247  0.14097  0.90019  Biso   1.000  N  -0.177142
  N3       1.0000 0.16882  0.99669  0.95802  Biso   1.000  N  -0.199037
  N4       1.0000 0.55753  0.35903  0.90019  Biso   1.000  N  -0.177142
  N5       1.0000 0.66882  0.00331  0.54198  Biso   1.000  N  -0.199037
  N6       1.0000 0.05753  0.64097  0.59981  Biso   1.000  N  -0.177143
  N7       1.0000 0.83118  0.49669  0.54198  Biso   1.000  N  -0.199037
  N8       1.0000 0.44247  0.85903  0.59981  Biso   1.000  N  -0.177142
  N9       1.0000 0.66882  0.49669  0.04198  Biso   1.000  N  -0.199037
  N10      1.0000 0.05753  0.85903  0.09981  Biso   1.000  N  -0.177142
  N11      1.0000 0.83118  0.00331  0.04198  Biso   1.000  N  -0.199037
  N12      1.0000 0.44247  0.64097  0.09981  Biso   1.000  N  -0.177142
  N13      1.0000 0.33118  0.99669  0.45802  Biso   1.000  N  -0.199037
  N14      1.0000 0.94247  0.35903  0.40019  Biso   1.000  N  -0.177143
  N15      1.0000 0.16882  0.50331  0.45802  Biso   1.000  N  -0.199037
  N16      1.0000 0.55753  0.14097  0.40019  Biso   1.000  N  -0.177142
  O1       1.0000 0.02698  0.49602  0.60255  Biso   1.000  O  -0.548838
  O2       1.0000 0.95931  0.40514  0.56823  Biso   1.000  O  -0.554198
  O3       1.0000 0.47302  0.00398  0.60255  Biso   1.000  O  -0.548838
  O4       1.0000 0.54069  0.09486  0.56823  Biso   1.000  O  -0.554198
  O5       1.0000 0.97302  0.99602  0.89745  Biso   1.000  O  -0.548838
  O6       1.0000 0.04069  0.90514  0.93177  Biso   1.000  O  -0.554198
  O7       1.0000 0.52698  0.50398  0.89745  Biso   1.000  O  -0.548838
  O8       1.0000 0.45931  0.59486  0.93177  Biso   1.000  O  -0.554199
  O9       1.0000 0.97302  0.50398  0.39745  Biso   1.000  O  -0.548838
  O10      1.0000 0.04069  0.59486  0.43177  Biso   1.000  O  -0.554199
  O11      1.0000 0.52698  0.99602  0.39745  Biso   1.000  O  -0.548837
  O12      1.0000 0.45931  0.90514  0.43177  Biso   1.000  O  -0.554198
  O13      1.0000 0.02698  0.00398  0.10255  Biso   1.000  O  -0.548838
  O14      1.0000 0.95931  0.09486  0.06823  Biso   1.000  O  -0.554198
  O15      1.0000 0.47302  0.49602  0.10255  Biso   1.000  O  -0.548838
  O16      1.0000 0.54069  0.40514  0.06823  Biso   1.000  O  -0.554199
