
##########################################################################
#               Crystallographic Information Format file
#               Produced by PyCifRW module
#
#  This is a CIF file.  CIF has been adopted by the International
#  Union of Crystallography as the standard for data archiving and
#  transmission.
#
#  For information on this file format, follow the CIF links at
#  http://www.iucr.org
##########################################################################

data_image0

_cell_length_a                          10.922
_cell_length_b                          11.402
_cell_length_c                          14.654
_cell_angle_alpha                       90
_cell_angle_beta                        109.3
_cell_angle_gamma                       90
_symmetry_space_group_name_H-M          'P 1'
_symmetry_int_tables_number             1
loop_
  _symmetry_equiv_pos_as_xyz
         'x, y, z' 
loop_
  _atom_site_label
  _atom_site_occupancy
  _atom_site_fract_x
  _atom_site_fract_y
  _atom_site_fract_z
  _atom_site_thermal_displace_type
  _atom_site_B_iso_or_equiv
  _atom_site_type_symbol
  _atom_site_charge
         C1        1.0000    0.30070   0.81750   0.26420   Biso      1.000     C          0.02692   
         C2        1.0000    0.62540   0.39170   0.90930   Biso      1.000     C          0.601838  
         C3        1.0000    0.69950   0.32470   0.85900   Biso      1.000     C          0.029768  
         C4        1.0000    0.83220   0.32440   0.89090   Biso      1.000     C          -0.199782           
         C5        1.0000    0.89730   0.25080   0.84690   Biso      1.000     C          0.152152  
         C6        1.0000    0.83470   0.18000   0.76740   Biso      1.000     C          -0.186852           
         C7        1.0000    0.69930   0.18250   0.73580   Biso      1.000     C          0.026926  
         C8        1.0000    0.37310   0.61220   0.85090   Biso      1.000     C          0.588554  
         C9        1.0000    0.63170   0.25350   0.78090   Biso      1.000     C          -0.10955899999999999          
         C10       1.0000    0.11760   0.34390   0.90740   Biso      1.000     C          0.064416  
         C11       1.0000    0.37460   0.89170   0.59070   Biso      1.000     C          0.600735  
         C12       1.0000    0.30050   0.82470   0.64100   Biso      1.000     C          0.03172   
         C13       1.0000    0.16780   0.82440   0.60910   Biso      1.000     C          -0.200006           
         C14       1.0000    0.10270   0.75080   0.65310   Biso      1.000     C          0.152293  
         C15       1.0000    0.16530   0.68000   0.73260   Biso      1.000     C          -0.186553           
         C16       1.0000    0.62690   0.11220   0.64910   Biso      1.000     C          0.5875060000000001  
         C17       1.0000    0.88240   0.84390   0.59260   Biso      1.000     C          0.064126  
         C18       1.0000    0.37460   0.60830   0.09070   Biso      1.000     C          0.601826  
         C19       1.0000    0.30050   0.67530   0.14100   Biso      1.000     C          0.029813  
         C20       1.0000    0.11760   0.15610   0.40740   Biso      1.000     C          0.064064  
         C21       1.0000    0.62690   0.38780   0.14910   Biso      1.000     C          0.5885640000000001  
         C22       1.0000    0.63170   0.24650   0.28090   Biso      1.000     C          -0.109614           
         C23       1.0000    0.69930   0.31750   0.23580   Biso      1.000     C          0.024779  
         C24       1.0000    0.83470   0.32000   0.26740   Biso      1.000     C          -0.18657200000000002          
         C25       1.0000    0.89730   0.24920   0.34690   Biso      1.000     C          0.1523    
         C26       1.0000    0.83220   0.17560   0.39090   Biso      1.000     C          -0.200031           
         C27       1.0000    0.69950   0.17530   0.35900   Biso      1.000     C          0.031708  
         C28       1.0000    0.62540   0.10830   0.40930   Biso      1.000     C          0.600753  
         C29       1.0000    0.88240   0.65610   0.09260   Biso      1.000     C          0.064461  
         C30       1.0000    0.37310   0.88780   0.35090   Biso      1.000     C          0.587494  
         C31       1.0000    0.36830   0.74650   0.21910   Biso      1.000     C          -0.109481           
         C32       1.0000    0.16530   0.82000   0.23260   Biso      1.000     C          -0.186825           
         C33       1.0000    0.10270   0.74920   0.15310   Biso      1.000     C          0.15215399999999998           
         C34       1.0000    0.16780   0.67560   0.10910   Biso      1.000     C          -0.199767           
         C35       1.0000    0.30070   0.68250   0.76420   Biso      1.000     C          0.024821  
         C36       1.0000    0.36830   0.75350   0.71910   Biso      1.000     C          -0.10953399999999999          
         Cu1       1.0000    0.40685   0.41843   0.97658   Biso      1.000     Cu          0.812408  
         Cu2       1.0000    0.59315   0.91843   0.52342   Biso      1.000     Cu          0.806628  
         Cu3       1.0000    0.59315   0.58157   0.02342   Biso      1.000     Cu          0.812822  
         Cu4       1.0000    0.40685   0.08157   0.47658   Biso      1.000     Cu          0.805639  
         H1        1.0000    0.54150   0.24660   0.25890   Biso      1.000     H          0.144379  
         H2        1.0000    0.87840   0.37290   0.94160   Biso      1.000     H          0.133511  
         H3        1.0000    0.88040   0.13400   0.73730   Biso      1.000     H          0.145678  
         H4        1.0000    0.09320   0.07790   0.40680   Biso      1.000     H          0.132454  
         H5        1.0000    0.09320   0.42210   0.90680   Biso      1.000     H          0.1325    
         H6        1.0000    0.12160   0.87290   0.55840   Biso      1.000     H          0.133787  
         H7        1.0000    0.11960   0.63400   0.76270   Biso      1.000     H          0.145474  
         H8        1.0000    0.54150   0.25340   0.75890   Biso      1.000     H          0.144424  
         H9        1.0000    0.90680   0.92210   0.59320   Biso      1.000     H          0.132473  
         H10       1.0000    0.12160   0.62710   0.05840   Biso      1.000     H          0.13352999999999998           
         H11       1.0000    0.11960   0.86600   0.26270   Biso      1.000     H          0.14569300000000002           
         H12       1.0000    0.45850   0.74660   0.24110   Biso      1.000     H          0.14444   
         H13       1.0000    0.90680   0.57790   0.09320   Biso      1.000     H          0.13251300000000002           
         H14       1.0000    0.87840   0.12710   0.44160   Biso      1.000     H          0.133767  
         H15       1.0000    0.88040   0.36600   0.23730   Biso      1.000     H          0.14545   
         H16       1.0000    0.45850   0.75340   0.74110   Biso      1.000     H          0.14440899999999998           
         N1        1.0000    0.23930   0.19740   0.43470   Biso      1.000     N          -0.18040499999999998          
         N2        1.0000    0.22970   0.31240   0.42380   Biso      1.000     N          -0.037917           
         N3        1.0000    0.10930   0.34590   0.39230   Biso      1.000     N          -0.137697           
         N4        1.0000    0.03760   0.24810   0.38120   Biso      1.000     N          0.123299  
         N5        1.0000    0.76070   0.69740   0.06530   Biso      1.000     N          -0.181268           
         N6        1.0000    0.77030   0.81240   0.07620   Biso      1.000     N          -0.037722000000000006         
         N7        1.0000    0.89070   0.84590   0.10770   Biso      1.000     N          -0.137235           
         N8        1.0000    0.96240   0.74810   0.11880   Biso      1.000     N          0.123453  
         N9        1.0000    0.77030   0.68760   0.57620   Biso      1.000     N          -0.037905           
         N10       1.0000    0.89070   0.65410   0.60770   Biso      1.000     N          -0.137627           
         N11       1.0000    0.96240   0.75190   0.61880   Biso      1.000     N          0.123305  
         N12       1.0000    0.23930   0.30260   0.93470   Biso      1.000     N          -0.181225           
         N13       1.0000    0.22970   0.18760   0.92380   Biso      1.000     N          -0.037731           
         N14       1.0000    0.10930   0.15410   0.89230   Biso      1.000     N          -0.137258           
         N15       1.0000    0.03760   0.25190   0.88120   Biso      1.000     N          0.12345899999999999           
         N16       1.0000    0.76070   0.80260   0.56530   Biso      1.000     N          -0.180489           
         O1        1.0000    0.67760   0.01630   0.44950   Biso      1.000     O          -0.53803  
         O2        1.0000    0.51750   0.14710   0.40740   Biso      1.000     O          -0.5190819999999999           
         O3        1.0000    0.32160   0.97980   0.36440   Biso      1.000     O          -0.517418           
         O4        1.0000    0.48390   0.84750   0.40240   Biso      1.000     O          -0.522849           
         O5        1.0000    0.32240   0.51630   0.05050   Biso      1.000     O          -0.538892           
         O6        1.0000    0.48250   0.64710   0.09260   Biso      1.000     O          -0.520307           
         O7        1.0000    0.32160   0.52020   0.86440   Biso      1.000     O          -0.5181979999999999           
         O8        1.0000    0.48250   0.85290   0.59260   Biso      1.000     O          -0.519126           
         O9        1.0000    0.32240   0.98370   0.55050   Biso      1.000     O          -0.53786  
         O10       1.0000    0.67840   0.02020   0.63560   Biso      1.000     O          -0.517587           
         O11       1.0000    0.51610   0.15250   0.59760   Biso      1.000     O          -0.522857           
         O12       1.0000    0.67760   0.48370   0.94950   Biso      1.000     O          -0.539072           
         O13       1.0000    0.51750   0.35290   0.90740   Biso      1.000     O          -0.520255           
         O14       1.0000    0.51610   0.34750   0.09760   Biso      1.000     O          -0.523115           
         O15       1.0000    0.48390   0.65250   0.90240   Biso      1.000     O          -0.5231279999999999           
         O16       1.0000    0.67840   0.47980   0.13560   Biso      1.000     O          -0.518358 