data_image0
_cell_length_a       19.2401
_cell_length_b       19.2401
_cell_length_c       17.8208
_cell_angle_alpha    90
_cell_angle_beta     90
_cell_angle_gamma    120

_symmetry_space_group_name_H-M    "P 1"
_symmetry_int_tables_number       1

loop_
  _symmetry_equiv_pos_as_xyz
  'x, y, z'

loop_
  _atom_site_label
  _atom_site_occupancy
  _atom_site_fract_x
  _atom_site_fract_y
  _atom_site_fract_z
  _atom_site_thermal_displace_type
  _atom_site_B_iso_or_equiv
  _atom_site_type_symbol
  _atom_site_charge
  C1       1.0000 0.53193  0.36212  0.60689  Biso   1.000  C  0.603431
  C2       1.0000 0.63788  0.16981  0.60689  Biso   1.000  C  0.603467
  C3       1.0000 0.36212  0.53193  0.10689  Biso   1.000  C  0.603431
  C4       1.0000 0.83019  0.46807  0.60689  Biso   1.000  C  0.603443
  C5       1.0000 0.46807  0.83019  0.10689  Biso   1.000  C  0.603443
  C6       1.0000 0.16981  0.63788  0.10689  Biso   1.000  C  0.603467
  C7       1.0000 0.49924  0.40690  0.65005  Biso   1.000  C  -0.025073
  C8       1.0000 0.59310  0.09234  0.65005  Biso   1.000  C  -0.025103
  C9       1.0000 0.40690  0.49924  0.15005  Biso   1.000  C  -0.025073
  C10      1.0000 0.90766  0.50076  0.65005  Biso   1.000  C  -0.025096
  C11      1.0000 0.50076  0.90766  0.15005  Biso   1.000  C  -0.025096
  C12      1.0000 0.09234  0.59310  0.15005  Biso   1.000  C  -0.025103
  C13      1.0000 0.53220  0.43890  0.71960  Biso   1.000  C  -0.077562
  C14      1.0000 0.56110  0.09330  0.71960  Biso   1.000  C  -0.077557
  C15      1.0000 0.43890  0.53220  0.21960  Biso   1.000  C  -0.077562
  C16      1.0000 0.90670  0.46780  0.71960  Biso   1.000  C  -0.077565
  C17      1.0000 0.46780  0.90670  0.21960  Biso   1.000  C  -0.077565
  C18      1.0000 0.09330  0.56110  0.21960  Biso   1.000  C  -0.077557
  C19      1.0000 0.50430  0.48020  0.76110  Biso   1.000  C  -0.173847
  C20      1.0000 0.51980  0.02410  0.76110  Biso   1.000  C  -0.173833
  C21      1.0000 0.48020  0.50430  0.26110  Biso   1.000  C  -0.173847
  C22      1.0000 0.97590  0.49570  0.76110  Biso   1.000  C  -0.173840
  C23      1.0000 0.49570  0.97590  0.26110  Biso   1.000  C  -0.173840
  C24      1.0000 0.02410  0.51980  0.26110  Biso   1.000  C  -0.173833
  C25      1.0000 0.44335  0.49160  0.73239  Biso   1.000  C  0.187042
  C26      1.0000 0.50840  0.95175  0.73239  Biso   1.000  C  0.187061
  C27      1.0000 0.49160  0.44335  0.23239  Biso   1.000  C  0.187042
  C28      1.0000 0.04825  0.55665  0.73239  Biso   1.000  C  0.187058
  C29      1.0000 0.55665  0.04825  0.23239  Biso   1.000  C  0.187058
  C30      1.0000 0.95175  0.50840  0.23239  Biso   1.000  C  0.187061
  C31      1.0000 0.40990  0.46080  0.66335  Biso   1.000  C  -0.169314
  C32      1.0000 0.53920  0.94910  0.66335  Biso   1.000  C  -0.169300
  C33      1.0000 0.46080  0.40990  0.16335  Biso   1.000  C  -0.169314
  C34      1.0000 0.05090  0.59010  0.66335  Biso   1.000  C  -0.169301
  C35      1.0000 0.59010  0.05090  0.16335  Biso   1.000  C  -0.169301
  C36      1.0000 0.94910  0.53920  0.16335  Biso   1.000  C  -0.169300
  C37      1.0000 0.43840  0.41800  0.62212  Biso   1.000  C  -0.078387
  C38      1.0000 0.58200  0.02040  0.62212  Biso   1.000  C  -0.078362
  C39      1.0000 0.41800  0.43840  0.12212  Biso   1.000  C  -0.078387
  C40      1.0000 0.97960  0.56160  0.62212  Biso   1.000  C  -0.078370
  C41      1.0000 0.56160  0.97960  0.12212  Biso   1.000  C  -0.078370
  C42      1.0000 0.02040  0.58200  0.12212  Biso   1.000  C  -0.078362
  C43      1.0000 0.32720  0.41090  0.86260  Biso   1.000  C  -0.544791
  C44      1.0000 0.58910  0.91630  0.86260  Biso   1.000  C  -0.544776
  C45      1.0000 0.41090  0.32720  0.36260  Biso   1.000  C  -0.544790
  C46      1.0000 0.08370  0.67280  0.86260  Biso   1.000  C  -0.544770
  C47      1.0000 0.67280  0.08370  0.36260  Biso   1.000  C  -0.544770
  C48      1.0000 0.91630  0.58910  0.36260  Biso   1.000  C  -0.544776
  C49      1.0000 0.36327  0.49660  0.84022  Biso   1.000  C  0.379642
  C50      1.0000 0.50340  0.86667  0.84022  Biso   1.000  C  0.379619
  C51      1.0000 0.49660  0.36327  0.34022  Biso   1.000  C  0.379641
  C52      1.0000 0.13333  0.63673  0.84022  Biso   1.000  C  0.379622
  C53      1.0000 0.63673  0.13333  0.34022  Biso   1.000  C  0.379622
  C54      1.0000 0.86667  0.50340  0.34022  Biso   1.000  C  0.379621
  C55      1.0000 0.43525  0.61196  0.78147  Biso   1.000  C  0.235518
  C56      1.0000 0.38804  0.82329  0.78147  Biso   1.000  C  0.235501
  C57      1.0000 0.61196  0.43525  0.28147  Biso   1.000  C  0.235518
  C58      1.0000 0.17671  0.56475  0.78147  Biso   1.000  C  0.235499
  C59      1.0000 0.56475  0.17671  0.28147  Biso   1.000  C  0.235499
  C60      1.0000 0.82329  0.38804  0.28147  Biso   1.000  C  0.235502
  C61      1.0000 0.70296  0.56446  0.45654  Biso   1.000  C  0.561833
  C62      1.0000 0.43554  0.13850  0.45654  Biso   1.000  C  0.561826
  C63      1.0000 0.56446  0.70296  0.95654  Biso   1.000  C  0.561833
  C64      1.0000 0.86150  0.29704  0.45654  Biso   1.000  C  0.561815
  C65      1.0000 0.29704  0.86150  0.95654  Biso   1.000  C  0.561815
  C66      1.0000 0.13850  0.43554  0.95654  Biso   1.000  C  0.561826
  C67      1.0000 0.65129  0.60370  0.45707  Biso   1.000  C  -0.023514
  C68      1.0000 0.39630  0.04759  0.45707  Biso   1.000  C  -0.023511
  C69      1.0000 0.60370  0.65129  0.95707  Biso   1.000  C  -0.023514
  C70      1.0000 0.95241  0.34871  0.45707  Biso   1.000  C  -0.023509
  C71      1.0000 0.34871  0.95241  0.95707  Biso   1.000  C  -0.023509
  C72      1.0000 0.04759  0.39630  0.95707  Biso   1.000  C  -0.023511
  C73      1.0000 0.68170  0.68080  0.42770  Biso   1.000  C  -0.100011
  C74      1.0000 0.31920  0.00090  0.42770  Biso   1.000  C  -0.100010
  C75      1.0000 0.68080  0.68170  0.92770  Biso   1.000  C  -0.100011
  C76      1.0000 0.99910  0.31830  0.42770  Biso   1.000  C  -0.100014
  C77      1.0000 0.31830  0.99910  0.92770  Biso   1.000  C  -0.100014
  C78      1.0000 0.00090  0.31920  0.92770  Biso   1.000  C  -0.100010
  C79      1.0000 0.63560  0.71860  0.42890  Biso   1.000  C  -0.192185
  C80      1.0000 0.28140  0.91700  0.42890  Biso   1.000  C  -0.192173
  C81      1.0000 0.71860  0.63560  0.92890  Biso   1.000  C  -0.192185
  C82      1.0000 0.08300  0.36440  0.42890  Biso   1.000  C  -0.192195
  C83      1.0000 0.36440  0.08300  0.92890  Biso   1.000  C  -0.192195
  C84      1.0000 0.91700  0.28140  0.92890  Biso   1.000  C  -0.192173
  C85      1.0000 0.55894  0.67889  0.45849  Biso   1.000  C  0.198137
  C86      1.0000 0.32111  0.88005  0.45849  Biso   1.000  C  0.198131
  C87      1.0000 0.67889  0.55894  0.95849  Biso   1.000  C  0.198137
  C88      1.0000 0.11995  0.44106  0.45849  Biso   1.000  C  0.198133
  C89      1.0000 0.44106  0.11995  0.95849  Biso   1.000  C  0.198133
  C90      1.0000 0.88005  0.32111  0.95849  Biso   1.000  C  0.198131
  C91      1.0000 0.52587  0.60065  0.48567  Biso   1.000  C  -0.172413
  C92      1.0000 0.39935  0.92522  0.48567  Biso   1.000  C  -0.172422
  C93      1.0000 0.60065  0.52587  0.98567  Biso   1.000  C  -0.172413
  C94      1.0000 0.07478  0.47413  0.48567  Biso   1.000  C  -0.172422
  C95      1.0000 0.47413  0.07478  0.98567  Biso   1.000  C  -0.172422
  C96      1.0000 0.92522  0.39935  0.98567  Biso   1.000  C  -0.172422
  C97      1.0000 0.57288  0.56396  0.48465  Biso   1.000  C  -0.091969
  C98      1.0000 0.43604  0.00892  0.48465  Biso   1.000  C  -0.091974
  C99      1.0000 0.56396  0.57288  0.98465  Biso   1.000  C  -0.091969
  C100     1.0000 0.99108  0.42712  0.48465  Biso   1.000  C  -0.091982
  C101     1.0000 0.42712  0.99108  0.98465  Biso   1.000  C  -0.091981
  C102     1.0000 0.00892  0.43604  0.98465  Biso   1.000  C  -0.091974
  C103     1.0000 0.48290  0.72380  0.32550  Biso   1.000  C  -0.534113
  C104     1.0000 0.27620  0.75910  0.32550  Biso   1.000  C  -0.534122
  C105     1.0000 0.72380  0.48290  0.82550  Biso   1.000  C  -0.534113
  C106     1.0000 0.24090  0.51710  0.32550  Biso   1.000  C  -0.534114
  C107     1.0000 0.51710  0.24090  0.82550  Biso   1.000  C  -0.534114
  C108     1.0000 0.75910  0.27620  0.82550  Biso   1.000  C  -0.534122
  C109     1.0000 0.47980  0.74197  0.40624  Biso   1.000  C  0.336486
  C110     1.0000 0.25803  0.73783  0.40624  Biso   1.000  C  0.336485
  C111     1.0000 0.74197  0.47980  0.90624  Biso   1.000  C  0.336486
  C112     1.0000 0.26217  0.52020  0.40624  Biso   1.000  C  0.336488
  C113     1.0000 0.52020  0.26217  0.90624  Biso   1.000  C  0.336488
  C114     1.0000 0.73783  0.25803  0.90624  Biso   1.000  C  0.336485
  C115     1.0000 0.49313  0.74494  0.52835  Biso   1.000  C  0.217532
  C116     1.0000 0.25506  0.74819  0.52835  Biso   1.000  C  0.217532
  C117     1.0000 0.74494  0.49313  0.02835  Biso   1.000  C  0.217532
  C118     1.0000 0.25181  0.50687  0.52835  Biso   1.000  C  0.217530
  C119     1.0000 0.50687  0.25181  0.02835  Biso   1.000  C  0.217530
  C120     1.0000 0.74819  0.25506  0.02835  Biso   1.000  C  0.217532
  C121     1.0000 0.51951  0.73580  0.60423  Biso   1.000  C  0.047562
  C122     1.0000 0.26420  0.78371  0.60423  Biso   1.000  C  0.047561
  C123     1.0000 0.73580  0.51951  0.10423  Biso   1.000  C  0.047562
  C124     1.0000 0.21629  0.48049  0.60423  Biso   1.000  C  0.047564
  C125     1.0000 0.48049  0.21629  0.10423  Biso   1.000  C  0.047565
  C126     1.0000 0.78371  0.26420  0.10423  Biso   1.000  C  0.047561
  C127     1.0000 0.59820  0.78610  0.62570  Biso   1.000  C  -0.137815
  C128     1.0000 0.21390  0.81210  0.62570  Biso   1.000  C  -0.137808
  C129     1.0000 0.78610  0.59820  0.12570  Biso   1.000  C  -0.137815
  C130     1.0000 0.18790  0.40180  0.62570  Biso   1.000  C  -0.137817
  C131     1.0000 0.40180  0.18790  0.12570  Biso   1.000  C  -0.137817
  C132     1.0000 0.81210  0.21390  0.12570  Biso   1.000  C  -0.137808
  C133     1.0000 0.62300  0.78130  0.69720  Biso   1.000  C  -0.075286
  C134     1.0000 0.21870  0.84170  0.69720  Biso   1.000  C  -0.075288
  C135     1.0000 0.78130  0.62300  0.19720  Biso   1.000  C  -0.075286
  C136     1.0000 0.15830  0.37700  0.69720  Biso   1.000  C  -0.075280
  C137     1.0000 0.37700  0.15830  0.19720  Biso   1.000  C  -0.075280
  C138     1.0000 0.84170  0.21870  0.19720  Biso   1.000  C  -0.075288
  C139     1.0000 0.57000  0.72420  0.74810  Biso   1.000  C  -0.116204
  C140     1.0000 0.27580  0.84580  0.74810  Biso   1.000  C  -0.116203
  C141     1.0000 0.72420  0.57000  0.24810  Biso   1.000  C  -0.116204
  C142     1.0000 0.15420  0.43000  0.74810  Biso   1.000  C  -0.116212
  C143     1.0000 0.43000  0.15420  0.24810  Biso   1.000  C  -0.116212
  C144     1.0000 0.84580  0.27580  0.24810  Biso   1.000  C  -0.116203
  C145     1.0000 0.49118  0.67231  0.72671  Biso   1.000  C  0.043507
  C146     1.0000 0.32769  0.81887  0.72671  Biso   1.000  C  0.043508
  C147     1.0000 0.67231  0.49118  0.22671  Biso   1.000  C  0.043507
  C148     1.0000 0.18113  0.50882  0.72671  Biso   1.000  C  0.043510
  C149     1.0000 0.50882  0.18113  0.22671  Biso   1.000  C  0.043510
  C150     1.0000 0.81887  0.32769  0.22671  Biso   1.000  C  0.043508
  C151     1.0000 0.46592  0.67853  0.65503  Biso   1.000  C  -0.166692
  C152     1.0000 0.32147  0.78739  0.65503  Biso   1.000  C  -0.166699
  C153     1.0000 0.67853  0.46592  0.15503  Biso   1.000  C  -0.166692
  C154     1.0000 0.21261  0.53408  0.65503  Biso   1.000  C  -0.166696
  C155     1.0000 0.53408  0.21261  0.15503  Biso   1.000  C  -0.166696
  C156     1.0000 0.78739  0.32147  0.15503  Biso   1.000  C  -0.166699
  H1       1.0000 0.57450  0.43210  0.73880  Biso   1.000  H  0.114054
  H2       1.0000 0.56790  0.14240  0.73880  Biso   1.000  H  0.114060
  H3       1.0000 0.43210  0.57450  0.23880  Biso   1.000  H  0.114054
  H4       1.0000 0.85760  0.42550  0.73880  Biso   1.000  H  0.114052
  H5       1.0000 0.42550  0.85760  0.23880  Biso   1.000  H  0.114052
  H6       1.0000 0.14240  0.56790  0.23880  Biso   1.000  H  0.114060
  H7       1.0000 0.52660  0.50090  0.80900  Biso   1.000  H  0.126645
  H8       1.0000 0.49910  0.02570  0.80900  Biso   1.000  H  0.126652
  H9       1.0000 0.50090  0.52660  0.30900  Biso   1.000  H  0.126645
  H10      1.0000 0.97430  0.47340  0.80900  Biso   1.000  H  0.126648
  H11      1.0000 0.47340  0.97430  0.30900  Biso   1.000  H  0.126648
  H12      1.0000 0.02570  0.49910  0.30900  Biso   1.000  H  0.126652
  H13      1.0000 0.36820  0.46840  0.64390  Biso   1.000  H  0.123245
  H14      1.0000 0.53160  0.89980  0.64390  Biso   1.000  H  0.123251
  H15      1.0000 0.46840  0.36820  0.14390  Biso   1.000  H  0.123245
  H16      1.0000 0.10020  0.63180  0.64390  Biso   1.000  H  0.123249
  H17      1.0000 0.63180  0.10020  0.14390  Biso   1.000  H  0.123249
  H18      1.0000 0.89980  0.53160  0.14390  Biso   1.000  H  0.123251
  H19      1.0000 0.41560  0.39630  0.57450  Biso   1.000  H  0.120831
  H20      1.0000 0.60370  0.01930  0.57450  Biso   1.000  H  0.120837
  H21      1.0000 0.39630  0.41560  0.07450  Biso   1.000  H  0.120831
  H22      1.0000 0.98070  0.58440  0.57450  Biso   1.000  H  0.120832
  H23      1.0000 0.58440  0.98070  0.07450  Biso   1.000  H  0.120832
  H24      1.0000 0.01930  0.60370  0.07450  Biso   1.000  H  0.120837
  H25      1.0000 0.29130  0.40010  0.90550  Biso   1.000  H  0.202153
  H26      1.0000 0.59990  0.89120  0.90550  Biso   1.000  H  0.202146
  H27      1.0000 0.40010  0.29130  0.40550  Biso   1.000  H  0.202153
  H28      1.0000 0.10880  0.70870  0.90550  Biso   1.000  H  0.202142
  H29      1.0000 0.70870  0.10880  0.40550  Biso   1.000  H  0.202142
  H30      1.0000 0.89120  0.59990  0.40550  Biso   1.000  H  0.202146
  H31      1.0000 0.36990  0.39970  0.87660  Biso   1.000  H  0.180113
  H32      1.0000 0.60030  0.97020  0.87660  Biso   1.000  H  0.180107
  H33      1.0000 0.39970  0.36990  0.37660  Biso   1.000  H  0.180113
  H34      1.0000 0.02980  0.63010  0.87660  Biso   1.000  H  0.180104
  H35      1.0000 0.63010  0.02980  0.37660  Biso   1.000  H  0.180104
  H36      1.0000 0.97020  0.60030  0.37660  Biso   1.000  H  0.180107
  H37      1.0000 0.29650  0.37650  0.82040  Biso   1.000  H  0.181131
  H38      1.0000 0.62350  0.92000  0.82040  Biso   1.000  H  0.181131
  H39      1.0000 0.37650  0.29650  0.32040  Biso   1.000  H  0.181131
  H40      1.0000 0.08000  0.70350  0.82040  Biso   1.000  H  0.181125
  H41      1.0000 0.70350  0.08000  0.32040  Biso   1.000  H  0.181125
  H42      1.0000 0.92000  0.62350  0.32040  Biso   1.000  H  0.181131
  H43      1.0000 0.73410  0.70780  0.40680  Biso   1.000  H  0.117237
  H44      1.0000 0.29220  0.02630  0.40680  Biso   1.000  H  0.117238
  H45      1.0000 0.70780  0.73410  0.90680  Biso   1.000  H  0.117237
  H46      1.0000 0.97370  0.26590  0.40680  Biso   1.000  H  0.117229
  H47      1.0000 0.26590  0.97370  0.90680  Biso   1.000  H  0.117229
  H48      1.0000 0.02630  0.29220  0.90680  Biso   1.000  H  0.117238
  H49      1.0000 0.65700  0.77140  0.40950  Biso   1.000  H  0.126027
  H50      1.0000 0.22860  0.88560  0.40950  Biso   1.000  H  0.126032
  H51      1.0000 0.77140  0.65700  0.90950  Biso   1.000  H  0.126027
  H52      1.0000 0.11440  0.34300  0.40950  Biso   1.000  H  0.126030
  H53      1.0000 0.34300  0.11440  0.90950  Biso   1.000  H  0.126030
  H54      1.0000 0.88560  0.22860  0.90950  Biso   1.000  H  0.126032
  H55      1.0000 0.47250  0.57290  0.50450  Biso   1.000  H  0.128649
  H56      1.0000 0.42710  0.89960  0.50450  Biso   1.000  H  0.128647
  H57      1.0000 0.57290  0.47250  0.00450  Biso   1.000  H  0.128649
  H58      1.0000 0.10040  0.52750  0.50450  Biso   1.000  H  0.128645
  H59      1.0000 0.52750  0.10040  0.00450  Biso   1.000  H  0.128645
  H60      1.0000 0.89960  0.42710  0.00450  Biso   1.000  H  0.128647
  H61      1.0000 0.55090  0.51080  0.50320  Biso   1.000  H  0.114598
  H62      1.0000 0.48920  0.04010  0.50320  Biso   1.000  H  0.114592
  H63      1.0000 0.51080  0.55090  0.00320  Biso   1.000  H  0.114598
  H64      1.0000 0.95990  0.44910  0.50320  Biso   1.000  H  0.114592
  H65      1.0000 0.44910  0.95990  0.00320  Biso   1.000  H  0.114592
  H66      1.0000 0.04010  0.48920  0.00320  Biso   1.000  H  0.114593
  H67      1.0000 0.44700  0.73620  0.29680  Biso   1.000  H  0.189509
  H68      1.0000 0.26380  0.71080  0.29680  Biso   1.000  H  0.189505
  H69      1.0000 0.73620  0.44700  0.79680  Biso   1.000  H  0.189509
  H70      1.0000 0.28920  0.55300  0.29680  Biso   1.000  H  0.189511
  H71      1.0000 0.55300  0.28920  0.79680  Biso   1.000  H  0.189511
  H72      1.0000 0.71080  0.26380  0.79680  Biso   1.000  H  0.189505
  H73      1.0000 0.46580  0.66680  0.31980  Biso   1.000  H  0.170956
  H74      1.0000 0.33320  0.79900  0.31980  Biso   1.000  H  0.170953
  H75      1.0000 0.66680  0.46580  0.81980  Biso   1.000  H  0.170956
  H76      1.0000 0.20100  0.53420  0.31980  Biso   1.000  H  0.170945
  H77      1.0000 0.53420  0.20100  0.81980  Biso   1.000  H  0.170945
  H78      1.0000 0.79900  0.33320  0.81980  Biso   1.000  H  0.170953
  H79      1.0000 0.53790  0.75650  0.30690  Biso   1.000  H  0.169902
  H80      1.0000 0.24350  0.78140  0.30690  Biso   1.000  H  0.169900
  H81      1.0000 0.75650  0.53790  0.80690  Biso   1.000  H  0.169902
  H82      1.0000 0.21860  0.46210  0.30690  Biso   1.000  H  0.169904
  H83      1.0000 0.46210  0.21860  0.80690  Biso   1.000  H  0.169904
  H84      1.0000 0.78140  0.24350  0.80690  Biso   1.000  H  0.169900
  H85      1.0000 0.63540  0.82400  0.59110  Biso   1.000  H  0.116947
  H86      1.0000 0.17600  0.81140  0.59110  Biso   1.000  H  0.116943
  H87      1.0000 0.82400  0.63540  0.09110  Biso   1.000  H  0.116947
  H88      1.0000 0.18860  0.36460  0.59110  Biso   1.000  H  0.116944
  H89      1.0000 0.36460  0.18860  0.09110  Biso   1.000  H  0.116944
  H90      1.0000 0.81140  0.17600  0.09110  Biso   1.000  H  0.116943
  H91      1.0000 0.67680  0.81720  0.71190  Biso   1.000  H  0.111195
  H92      1.0000 0.18280  0.85960  0.71190  Biso   1.000  H  0.111192
  H93      1.0000 0.81720  0.67680  0.21190  Biso   1.000  H  0.111195
  H94      1.0000 0.14040  0.32320  0.71190  Biso   1.000  H  0.111194
  H95      1.0000 0.32320  0.14040  0.21190  Biso   1.000  H  0.111195
  H96      1.0000 0.85960  0.18280  0.21190  Biso   1.000  H  0.111191
  H97      1.0000 0.58770  0.72090  0.79710  Biso   1.000  H  0.117214
  H98      1.0000 0.27910  0.86680  0.79710  Biso   1.000  H  0.117217
  H99      1.0000 0.72090  0.58770  0.29710  Biso   1.000  H  0.117214
  H100     1.0000 0.13320  0.41230  0.79710  Biso   1.000  H  0.117213
  H101     1.0000 0.41230  0.13320  0.29710  Biso   1.000  H  0.117213
  H102     1.0000 0.86680  0.27910  0.29710  Biso   1.000  H  0.117217
  H103     1.0000 0.41180  0.64360  0.64050  Biso   1.000  H  0.123681
  H104     1.0000 0.35640  0.76820  0.64050  Biso   1.000  H  0.123680
  H105     1.0000 0.64360  0.41180  0.14050  Biso   1.000  H  0.123681
  H106     1.0000 0.23180  0.58820  0.64050  Biso   1.000  H  0.123678
  H107     1.0000 0.58820  0.23180  0.14050  Biso   1.000  H  0.123678
  H108     1.0000 0.76820  0.35640  0.14050  Biso   1.000  H  0.123680
  N1       1.0000 0.35576  0.55240  0.87471  Biso   1.000  N  -0.250629
  N2       1.0000 0.44760  0.80336  0.87471  Biso   1.000  N  -0.250624
  N3       1.0000 0.55240  0.35576  0.37471  Biso   1.000  N  -0.250629
  N4       1.0000 0.19664  0.64424  0.87471  Biso   1.000  N  -0.250670
  N5       1.0000 0.64424  0.19664  0.37471  Biso   1.000  N  -0.250670
  N6       1.0000 0.80336  0.44760  0.37471  Biso   1.000  N  -0.250624
  N7       1.0000 0.40161  0.62591  0.83869  Biso   1.000  N  -0.223739
  N8       1.0000 0.37409  0.77570  0.83869  Biso   1.000  N  -0.223689
  N9       1.0000 0.62591  0.40161  0.33869  Biso   1.000  N  -0.223737
  N10      1.0000 0.22430  0.59839  0.83869  Biso   1.000  N  -0.223700
  N11      1.0000 0.59839  0.22430  0.33869  Biso   1.000  N  -0.223700
  N12      1.0000 0.77570  0.37409  0.33869  Biso   1.000  N  -0.223691
  N13      1.0000 0.41226  0.53101  0.77927  Biso   1.000  N  -0.143551
  N14      1.0000 0.46899  0.88125  0.77927  Biso   1.000  N  -0.143563
  N15      1.0000 0.53101  0.41226  0.27927  Biso   1.000  N  -0.143551
  N16      1.0000 0.11875  0.58774  0.77927  Biso   1.000  N  -0.143565
  N17      1.0000 0.58774  0.11875  0.27927  Biso   1.000  N  -0.143565
  N18      1.0000 0.88125  0.46899  0.27927  Biso   1.000  N  -0.143564
  N19      1.0000 0.44330  0.77897  0.43395  Biso   1.000  N  -0.291745
  N20      1.0000 0.22103  0.66433  0.43395  Biso   1.000  N  -0.291742
  N21      1.0000 0.77897  0.44330  0.93395  Biso   1.000  N  -0.291745
  N22      1.0000 0.33567  0.55670  0.43395  Biso   1.000  N  -0.291738
  N23      1.0000 0.55670  0.33567  0.93395  Biso   1.000  N  -0.291738
  N24      1.0000 0.66433  0.22103  0.93395  Biso   1.000  N  -0.291742
  N25      1.0000 0.45178  0.78020  0.51280  Biso   1.000  N  -0.277233
  N26      1.0000 0.21980  0.67158  0.51280  Biso   1.000  N  -0.277227
  N27      1.0000 0.78020  0.45178  0.01280  Biso   1.000  N  -0.277233
  N28      1.0000 0.32842  0.54822  0.51280  Biso   1.000  N  -0.277228
  N29      1.0000 0.54822  0.32842  0.01280  Biso   1.000  N  -0.277228
  N30      1.0000 0.67158  0.21980  0.01280  Biso   1.000  N  -0.277227
  N31      1.0000 0.51329  0.71979  0.46375  Biso   1.000  N  -0.141221
  N32      1.0000 0.28021  0.79350  0.46375  Biso   1.000  N  -0.141218
  N33      1.0000 0.71979  0.51329  0.96375  Biso   1.000  N  -0.141221
  N34      1.0000 0.20650  0.48671  0.46375  Biso   1.000  N  -0.141218
  N35      1.0000 0.48671  0.20650  0.96375  Biso   1.000  N  -0.141218
  N36      1.0000 0.79350  0.28021  0.96375  Biso   1.000  N  -0.141218
  O1       1.0000 0.66670  0.33330  0.49218  Biso   1.000  O  -0.919264
  O2       1.0000 0.33330  0.66670  0.99218  Biso   1.000  O  -0.919264
  O3       1.0000 0.58291  0.35058  0.64204  Biso   1.000  O  -0.557192
  O4       1.0000 0.64942  0.23233  0.64204  Biso   1.000  O  -0.557109
  O5       1.0000 0.35058  0.58291  0.14204  Biso   1.000  O  -0.557192
  O6       1.0000 0.76767  0.41709  0.64204  Biso   1.000  O  -0.557141
  O7       1.0000 0.41709  0.76767  0.14204  Biso   1.000  O  -0.557141
  O8       1.0000 0.23233  0.64942  0.14204  Biso   1.000  O  -0.557109
  O9       1.0000 0.50717  0.33915  0.54142  Biso   1.000  O  -0.534274
  O10      1.0000 0.66085  0.16802  0.54142  Biso   1.000  O  -0.534232
  O11      1.0000 0.33915  0.50717  0.04142  Biso   1.000  O  -0.534274
  O12      1.0000 0.83198  0.49283  0.54142  Biso   1.000  O  -0.534206
  O13      1.0000 0.49283  0.83198  0.04142  Biso   1.000  O  -0.534206
  O14      1.0000 0.16802  0.66085  0.04142  Biso   1.000  O  -0.534232
  O15      1.0000 0.67273  0.49571  0.48802  Biso   1.000  O  -0.558815
  O16      1.0000 0.50429  0.17702  0.48802  Biso   1.000  O  -0.558795
  O17      1.0000 0.49571  0.67273  0.98802  Biso   1.000  O  -0.558815
  O18      1.0000 0.82298  0.32727  0.48802  Biso   1.000  O  -0.558860
  O19      1.0000 0.32727  0.82298  0.98802  Biso   1.000  O  -0.558860
  O20      1.0000 0.17702  0.50429  0.98802  Biso   1.000  O  -0.558796
  O21      1.0000 0.76942  0.59887  0.42559  Biso   1.000  O  -0.567671
  O22      1.0000 0.40113  0.17055  0.42559  Biso   1.000  O  -0.567675
  O23      1.0000 0.59887  0.76942  0.92559  Biso   1.000  O  -0.567671
  O24      1.0000 0.82945  0.23058  0.42559  Biso   1.000  O  -0.567681
  O25      1.0000 0.23058  0.82945  0.92559  Biso   1.000  O  -0.567681
  O26      1.0000 0.17055  0.40113  0.92559  Biso   1.000  O  -0.567675
  Zn1      1.0000 0.66670  0.33330  0.60008  Biso   1.000  Zn  0.944440
  Zn2      1.0000 0.33330  0.66670  0.10008  Biso   1.000  Zn  0.944440
  Zn3      1.0000 0.29223  0.55272  0.96517  Biso   1.000  Zn  0.871869
  Zn4      1.0000 0.44728  0.73951  0.96517  Biso   1.000  Zn  0.871933
  Zn5      1.0000 0.55272  0.29223  0.46517  Biso   1.000  Zn  0.871869
  Zn6      1.0000 0.26049  0.70777  0.96517  Biso   1.000  Zn  0.872219
  Zn7      1.0000 0.70777  0.26049  0.46517  Biso   1.000  Zn  0.872219
  Zn8      1.0000 0.73951  0.44728  0.46517  Biso   1.000  Zn  0.871933
