data_image0
_cell_length_a       12.1
_cell_length_b       26.162
_cell_length_c       26.162
_cell_angle_alpha    90
_cell_angle_beta     90
_cell_angle_gamma    90

_symmetry_space_group_name_H-M    "P 1"
_symmetry_int_tables_number       1

loop_
  _symmetry_equiv_pos_as_xyz
  'x, y, z'

loop_
  _atom_site_label
  _atom_site_occupancy
  _atom_site_fract_x
  _atom_site_fract_y
  _atom_site_fract_z
  _atom_site_thermal_displace_type
  _atom_site_B_iso_or_equiv
  _atom_site_type_symbol
  _atom_site_charge
  C1       1.0000 0.79330  0.66956  0.86871  Biso   1.000  C  0.018932
  C2       1.0000 0.84510  0.62661  0.88725  Biso   1.000  C  -0.148320
  C3       1.0000 0.81170  0.60591  0.93374  Biso   1.000  C  0.012730
  C4       1.0000 0.72380  0.62756  0.95877  Biso   1.000  C  -0.223668
  C5       1.0000 0.67040  0.67038  0.94056  Biso   1.000  C  0.277326
  C6       1.0000 0.70420  0.69178  0.89423  Biso   1.000  C  -0.258369
  C7       1.0000 0.83500  0.69352  0.82103  Biso   1.000  C  0.602372
  C8       1.0000 0.87720  0.56280  0.95640  Biso   1.000  C  0.607274
  C9       1.0000 0.53240  0.73324  0.95609  Biso   1.000  C  -0.073007
  C10      1.0000 0.38570  0.70500  0.01562  Biso   1.000  C  -0.070119
  C11      1.0000 0.24160  0.69302  0.07668  Biso   1.000  C  0.279962
  C12      1.0000 0.20750  0.64684  0.05600  Biso   1.000  C  -0.253779
  C13      1.0000 0.11710  0.62097  0.07591  Biso   1.000  C  0.013243
  C14      1.0000 0.06150  0.64191  0.11740  Biso   1.000  C  -0.144518
  C15      1.0000 0.09660  0.68755  0.13861  Biso   1.000  C  0.012567
  C16      1.0000 0.18710  0.71236  0.11815  Biso   1.000  C  -0.224105
  C17      1.0000 0.07830  0.57434  0.05009  Biso   1.000  C  0.605294
  C18      1.0000 0.03640  0.71115  0.18116  Biso   1.000  C  0.600954
  C19      1.0000 0.20670  0.33044  0.36871  Biso   1.000  C  0.018938
  C20      1.0000 0.15490  0.37339  0.38725  Biso   1.000  C  -0.148309
  C21      1.0000 0.18830  0.39409  0.43374  Biso   1.000  C  0.012734
  C22      1.0000 0.27620  0.37244  0.45877  Biso   1.000  C  -0.223679
  C23      1.0000 0.32960  0.32962  0.44056  Biso   1.000  C  0.277321
  C24      1.0000 0.29580  0.30822  0.39423  Biso   1.000  C  -0.258372
  C25      1.0000 0.16500  0.30648  0.32103  Biso   1.000  C  0.602371
  C26      1.0000 0.12280  0.43720  0.45640  Biso   1.000  C  0.607273
  C27      1.0000 0.46760  0.26676  0.45609  Biso   1.000  C  -0.073007
  C28      1.0000 0.61430  0.29500  0.51562  Biso   1.000  C  -0.070119
  C29      1.0000 0.75840  0.30698  0.57668  Biso   1.000  C  0.279974
  C30      1.0000 0.79250  0.35316  0.55600  Biso   1.000  C  -0.253756
  C31      1.0000 0.88290  0.37903  0.57591  Biso   1.000  C  0.013264
  C32      1.0000 0.93850  0.35809  0.61740  Biso   1.000  C  -0.144494
  C33      1.0000 0.90340  0.31245  0.63861  Biso   1.000  C  0.012552
  C34      1.0000 0.81290  0.28764  0.61815  Biso   1.000  C  -0.224107
  C35      1.0000 0.92170  0.42566  0.55009  Biso   1.000  C  0.605275
  C36      1.0000 0.96360  0.28885  0.68116  Biso   1.000  C  0.600941
  C37      1.0000 0.20670  0.16956  0.63129  Biso   1.000  C  0.018933
  C38      1.0000 0.15490  0.12661  0.61275  Biso   1.000  C  -0.148288
  C39      1.0000 0.18830  0.10591  0.56626  Biso   1.000  C  0.012749
  C40      1.0000 0.27620  0.12756  0.54123  Biso   1.000  C  -0.223647
  C41      1.0000 0.32960  0.17038  0.55944  Biso   1.000  C  0.277339
  C42      1.0000 0.29580  0.19178  0.60577  Biso   1.000  C  -0.258360
  C43      1.0000 0.16500  0.19352  0.67897  Biso   1.000  C  0.602358
  C44      1.0000 0.12280  0.06280  0.54360  Biso   1.000  C  0.607261
  C45      1.0000 0.46760  0.23324  0.54391  Biso   1.000  C  -0.073008
  C46      1.0000 0.61430  0.20500  0.48438  Biso   1.000  C  -0.070122
  C47      1.0000 0.75840  0.19302  0.42332  Biso   1.000  C  0.279962
  C48      1.0000 0.79250  0.14684  0.44400  Biso   1.000  C  -0.253781
  C49      1.0000 0.88290  0.12097  0.42409  Biso   1.000  C  0.013241
  C50      1.0000 0.93850  0.14191  0.38260  Biso   1.000  C  -0.144516
  C51      1.0000 0.90340  0.18755  0.36139  Biso   1.000  C  0.012573
  C52      1.0000 0.81290  0.21236  0.38185  Biso   1.000  C  -0.224096
  C53      1.0000 0.92170  0.07434  0.44991  Biso   1.000  C  0.605294
  C54      1.0000 0.96360  0.21115  0.31884  Biso   1.000  C  0.600952
  C55      1.0000 0.79330  0.83044  0.13129  Biso   1.000  C  0.018937
  C56      1.0000 0.84510  0.87339  0.11275  Biso   1.000  C  -0.148314
  C57      1.0000 0.81170  0.89409  0.06626  Biso   1.000  C  0.012723
  C58      1.0000 0.72380  0.87244  0.04123  Biso   1.000  C  -0.223679
  C59      1.0000 0.67040  0.82962  0.05944  Biso   1.000  C  0.277325
  C60      1.0000 0.70420  0.80822  0.10577  Biso   1.000  C  -0.258362
  C61      1.0000 0.83500  0.80648  0.17897  Biso   1.000  C  0.602371
  C62      1.0000 0.87720  0.93720  0.04360  Biso   1.000  C  0.607278
  C63      1.0000 0.53240  0.76676  0.04391  Biso   1.000  C  -0.073006
  C64      1.0000 0.38570  0.79500  0.98438  Biso   1.000  C  -0.070120
  C65      1.0000 0.24160  0.80698  0.92332  Biso   1.000  C  0.279966
  C66      1.0000 0.20750  0.85316  0.94400  Biso   1.000  C  -0.253770
  C67      1.0000 0.11710  0.87903  0.92409  Biso   1.000  C  0.013236
  C68      1.0000 0.06150  0.85809  0.88260  Biso   1.000  C  -0.144523
  C69      1.0000 0.09660  0.81245  0.86139  Biso   1.000  C  0.012568
  C70      1.0000 0.18710  0.78764  0.88185  Biso   1.000  C  -0.224093
  C71      1.0000 0.07830  0.92566  0.94991  Biso   1.000  C  0.605294
  C72      1.0000 0.03640  0.78885  0.81884  Biso   1.000  C  0.600953
  C73      1.0000 0.20670  0.33044  0.13129  Biso   1.000  C  0.018935
  C74      1.0000 0.15490  0.37339  0.11275  Biso   1.000  C  -0.148311
  C75      1.0000 0.18830  0.39409  0.06626  Biso   1.000  C  0.012734
  C76      1.0000 0.27620  0.37244  0.04123  Biso   1.000  C  -0.223679
  C77      1.0000 0.32960  0.32962  0.05944  Biso   1.000  C  0.277321
  C78      1.0000 0.29580  0.30822  0.10577  Biso   1.000  C  -0.258374
  C79      1.0000 0.16500  0.30648  0.17897  Biso   1.000  C  0.602372
  C80      1.0000 0.12280  0.43720  0.04360  Biso   1.000  C  0.607273
  C81      1.0000 0.46760  0.26676  0.04391  Biso   1.000  C  -0.073006
  C82      1.0000 0.61430  0.29500  0.98438  Biso   1.000  C  -0.070118
  C83      1.0000 0.75840  0.30698  0.92332  Biso   1.000  C  0.279974
  C84      1.0000 0.79250  0.35316  0.94400  Biso   1.000  C  -0.253755
  C85      1.0000 0.88290  0.37903  0.92409  Biso   1.000  C  0.013265
  C86      1.0000 0.93850  0.35809  0.88260  Biso   1.000  C  -0.144496
  C87      1.0000 0.90340  0.31245  0.86139  Biso   1.000  C  0.012550
  C88      1.0000 0.81290  0.28764  0.88185  Biso   1.000  C  -0.224109
  C89      1.0000 0.92170  0.42566  0.94991  Biso   1.000  C  0.605275
  C90      1.0000 0.96360  0.28885  0.81884  Biso   1.000  C  0.600941
  C91      1.0000 0.79330  0.66956  0.63129  Biso   1.000  C  0.018934
  C92      1.0000 0.84510  0.62661  0.61275  Biso   1.000  C  -0.148319
  C93      1.0000 0.81170  0.60591  0.56626  Biso   1.000  C  0.012729
  C94      1.0000 0.72380  0.62756  0.54123  Biso   1.000  C  -0.223668
  C95      1.0000 0.67040  0.67038  0.55944  Biso   1.000  C  0.277326
  C96      1.0000 0.70420  0.69178  0.60577  Biso   1.000  C  -0.258368
  C97      1.0000 0.83500  0.69352  0.67897  Biso   1.000  C  0.602372
  C98      1.0000 0.87720  0.56280  0.54360  Biso   1.000  C  0.607274
  C99      1.0000 0.53240  0.73324  0.54391  Biso   1.000  C  -0.073008
  C100     1.0000 0.38570  0.70500  0.48438  Biso   1.000  C  -0.070120
  C101     1.0000 0.24160  0.69302  0.42332  Biso   1.000  C  0.279962
  C102     1.0000 0.20750  0.64684  0.44400  Biso   1.000  C  -0.253779
  C103     1.0000 0.11710  0.62097  0.42409  Biso   1.000  C  0.013243
  C104     1.0000 0.06150  0.64191  0.38260  Biso   1.000  C  -0.144516
  C105     1.0000 0.09660  0.68755  0.36139  Biso   1.000  C  0.012569
  C106     1.0000 0.18710  0.71236  0.38185  Biso   1.000  C  -0.224103
  C107     1.0000 0.07830  0.57434  0.44991  Biso   1.000  C  0.605295
  C108     1.0000 0.03640  0.71115  0.31884  Biso   1.000  C  0.600954
  C109     1.0000 0.79330  0.83044  0.36871  Biso   1.000  C  0.018939
  C110     1.0000 0.84510  0.87339  0.38725  Biso   1.000  C  -0.148312
  C111     1.0000 0.81170  0.89409  0.43374  Biso   1.000  C  0.012723
  C112     1.0000 0.72380  0.87244  0.45877  Biso   1.000  C  -0.223680
  C113     1.0000 0.67040  0.82962  0.44056  Biso   1.000  C  0.277325
  C114     1.0000 0.70420  0.80822  0.39423  Biso   1.000  C  -0.258360
  C115     1.0000 0.83500  0.80648  0.32103  Biso   1.000  C  0.602371
  C116     1.0000 0.87720  0.93720  0.45640  Biso   1.000  C  0.607278
  C117     1.0000 0.53240  0.76676  0.45609  Biso   1.000  C  -0.073006
  C118     1.0000 0.38570  0.79500  0.51562  Biso   1.000  C  -0.070120
  C119     1.0000 0.24160  0.80698  0.57668  Biso   1.000  C  0.279967
  C120     1.0000 0.20750  0.85316  0.55600  Biso   1.000  C  -0.253771
  C121     1.0000 0.11710  0.87903  0.57591  Biso   1.000  C  0.013236
  C122     1.0000 0.06150  0.85809  0.61740  Biso   1.000  C  -0.144522
  C123     1.0000 0.09660  0.81245  0.63861  Biso   1.000  C  0.012570
  C124     1.0000 0.18710  0.78764  0.61815  Biso   1.000  C  -0.224092
  C125     1.0000 0.07830  0.92566  0.55009  Biso   1.000  C  0.605295
  C126     1.0000 0.03640  0.78885  0.68116  Biso   1.000  C  0.600953
  C127     1.0000 0.20670  0.16956  0.86871  Biso   1.000  C  0.018931
  C128     1.0000 0.15490  0.12661  0.88725  Biso   1.000  C  -0.148289
  C129     1.0000 0.18830  0.10591  0.93374  Biso   1.000  C  0.012750
  C130     1.0000 0.27620  0.12756  0.95877  Biso   1.000  C  -0.223646
  C131     1.0000 0.32960  0.17038  0.94056  Biso   1.000  C  0.277338
  C132     1.0000 0.29580  0.19178  0.89423  Biso   1.000  C  -0.258361
  C133     1.0000 0.16500  0.19352  0.82103  Biso   1.000  C  0.602358
  C134     1.0000 0.12280  0.06280  0.95640  Biso   1.000  C  0.607261
  C135     1.0000 0.46760  0.23324  0.95609  Biso   1.000  C  -0.073008
  C136     1.0000 0.61430  0.20500  0.01562  Biso   1.000  C  -0.070122
  C137     1.0000 0.75840  0.19302  0.07668  Biso   1.000  C  0.279961
  C138     1.0000 0.79250  0.14684  0.05600  Biso   1.000  C  -0.253781
  C139     1.0000 0.88290  0.12097  0.07591  Biso   1.000  C  0.013241
  C140     1.0000 0.93850  0.14191  0.11740  Biso   1.000  C  -0.144518
  C141     1.0000 0.90340  0.18755  0.13861  Biso   1.000  C  0.012571
  C142     1.0000 0.81290  0.21236  0.11815  Biso   1.000  C  -0.224099
  C143     1.0000 0.92170  0.07434  0.05009  Biso   1.000  C  0.605294
  C144     1.0000 0.96360  0.21115  0.18116  Biso   1.000  C  0.600952
  C145     1.0000 0.45810  0.75000  0.00000  Biso   1.000  C  0.079605
  C146     1.0000 0.54190  0.25000  0.50000  Biso   1.000  C  0.079606
  C147     1.0000 0.54190  0.25000  0.00000  Biso   1.000  C  0.079606
  C148     1.0000 0.45810  0.75000  0.50000  Biso   1.000  C  0.079605
  Cu1      1.0000 0.07621  0.99393  0.03557  Biso   1.000  Cu  0.867559
  Cu2      1.0000 0.92379  0.00607  0.53557  Biso   1.000  Cu  0.867719
  Cu3      1.0000 0.92379  0.49393  0.46443  Biso   1.000  Cu  0.867553
  Cu4      1.0000 0.07621  0.50607  0.96443  Biso   1.000  Cu  0.867696
  Cu5      1.0000 0.92379  0.00607  0.96443  Biso   1.000  Cu  0.867714
  Cu6      1.0000 0.07621  0.99393  0.46443  Biso   1.000  Cu  0.867563
  Cu7      1.0000 0.07621  0.50607  0.53557  Biso   1.000  Cu  0.867698
  Cu8      1.0000 0.92379  0.49393  0.03557  Biso   1.000  Cu  0.867549
  Cu9      1.0000 0.01028  0.70493  0.75000  Biso   1.000  Cu  0.904561
  Cu10     1.0000 0.85594  0.77610  0.75000  Biso   1.000  Cu  0.866383
  Cu11     1.0000 0.98972  0.29507  0.25000  Biso   1.000  Cu  0.904565
  Cu12     1.0000 0.14406  0.22390  0.25000  Biso   1.000  Cu  0.866387
  Cu13     1.0000 0.98972  0.20493  0.75000  Biso   1.000  Cu  0.904494
  Cu14     1.0000 0.14406  0.27610  0.75000  Biso   1.000  Cu  0.866321
  Cu15     1.0000 0.01028  0.79507  0.25000  Biso   1.000  Cu  0.904560
  Cu16     1.0000 0.85594  0.72390  0.25000  Biso   1.000  Cu  0.866388
  H1       1.0000 0.90210  0.61150  0.86880  Biso   1.000  H  0.135207
  H2       1.0000 0.69940  0.61280  0.98910  Biso   1.000  H  0.142275
  H3       1.0000 0.66830  0.72010  0.88070  Biso   1.000  H  0.141252
  H4       1.0000 0.58410  0.76030  0.94780  Biso   1.000  H  0.097280
  H5       1.0000 0.48810  0.72620  0.92600  Biso   1.000  H  0.096436
  H6       1.0000 0.43090  0.67550  0.02390  Biso   1.000  H  0.101246
  H7       1.0000 0.33580  0.69580  0.98810  Biso   1.000  H  0.103535
  H8       1.0000 0.24570  0.63300  0.02840  Biso   1.000  H  0.135450
  H9       1.0000 0.00040  0.62520  0.13100  Biso   1.000  H  0.132479
  H10      1.0000 0.21140  0.74270  0.13280  Biso   1.000  H  0.146076
  H11      1.0000 0.09790  0.38850  0.36880  Biso   1.000  H  0.135214
  H12      1.0000 0.30060  0.38720  0.48910  Biso   1.000  H  0.142272
  H13      1.0000 0.33170  0.27990  0.38070  Biso   1.000  H  0.141253
  H14      1.0000 0.41590  0.23970  0.44780  Biso   1.000  H  0.097281
  H15      1.0000 0.51190  0.27380  0.42600  Biso   1.000  H  0.096444
  H16      1.0000 0.56910  0.32450  0.52390  Biso   1.000  H  0.101251
  H17      1.0000 0.66420  0.30420  0.48810  Biso   1.000  H  0.103544
  H18      1.0000 0.75430  0.36700  0.52840  Biso   1.000  H  0.135463
  H19      1.0000 0.99960  0.37480  0.63100  Biso   1.000  H  0.132481
  H20      1.0000 0.78860  0.25730  0.63280  Biso   1.000  H  0.146077
  H21      1.0000 0.09790  0.11150  0.63120  Biso   1.000  H  0.135212
  H22      1.0000 0.30060  0.11280  0.51090  Biso   1.000  H  0.142286
  H23      1.0000 0.33170  0.22010  0.61930  Biso   1.000  H  0.141257
  H24      1.0000 0.41590  0.26030  0.55220  Biso   1.000  H  0.097282
  H25      1.0000 0.51190  0.22620  0.57400  Biso   1.000  H  0.096434
  H26      1.0000 0.56910  0.17550  0.47610  Biso   1.000  H  0.101248
  H27      1.0000 0.66420  0.19580  0.51190  Biso   1.000  H  0.103534
  H28      1.0000 0.75430  0.13300  0.47160  Biso   1.000  H  0.135450
  H29      1.0000 0.99960  0.12520  0.36900  Biso   1.000  H  0.132483
  H30      1.0000 0.78860  0.24270  0.36720  Biso   1.000  H  0.146080
  H31      1.0000 0.90210  0.88850  0.13120  Biso   1.000  H  0.135208
  H32      1.0000 0.69940  0.88720  0.01090  Biso   1.000  H  0.142268
  H33      1.0000 0.66830  0.77990  0.11930  Biso   1.000  H  0.141254
  H34      1.0000 0.58410  0.73970  0.05220  Biso   1.000  H  0.097282
  H35      1.0000 0.48810  0.77380  0.07400  Biso   1.000  H  0.096438
  H36      1.0000 0.43090  0.82450  0.97610  Biso   1.000  H  0.101243
  H37      1.0000 0.33580  0.80420  0.01190  Biso   1.000  H  0.103538
  H38      1.0000 0.24570  0.86700  0.97160  Biso   1.000  H  0.135453
  H39      1.0000 0.00040  0.87480  0.86900  Biso   1.000  H  0.132477
  H40      1.0000 0.21140  0.75730  0.86720  Biso   1.000  H  0.146078
  H41      1.0000 0.09790  0.38850  0.13120  Biso   1.000  H  0.135212
  H42      1.0000 0.30060  0.38720  0.01090  Biso   1.000  H  0.142271
  H43      1.0000 0.33170  0.27990  0.11930  Biso   1.000  H  0.141252
  H44      1.0000 0.41590  0.23970  0.05220  Biso   1.000  H  0.097281
  H45      1.0000 0.51190  0.27380  0.07400  Biso   1.000  H  0.096443
  H46      1.0000 0.56910  0.32450  0.97610  Biso   1.000  H  0.101250
  H47      1.0000 0.66420  0.30420  0.01190  Biso   1.000  H  0.103544
  H48      1.0000 0.75430  0.36700  0.97160  Biso   1.000  H  0.135463
  H49      1.0000 0.99960  0.37480  0.86900  Biso   1.000  H  0.132479
  H50      1.0000 0.78860  0.25730  0.86720  Biso   1.000  H  0.146076
  H51      1.0000 0.90210  0.61150  0.63120  Biso   1.000  H  0.135208
  H52      1.0000 0.69940  0.61280  0.51090  Biso   1.000  H  0.142275
  H53      1.0000 0.66830  0.72010  0.61930  Biso   1.000  H  0.141253
  H54      1.0000 0.58410  0.76030  0.55220  Biso   1.000  H  0.097280
  H55      1.0000 0.48810  0.72620  0.57400  Biso   1.000  H  0.096437
  H56      1.0000 0.43090  0.67550  0.47610  Biso   1.000  H  0.101247
  H57      1.0000 0.33580  0.69580  0.51190  Biso   1.000  H  0.103536
  H58      1.0000 0.24570  0.63300  0.47160  Biso   1.000  H  0.135451
  H59      1.0000 0.00040  0.62520  0.36900  Biso   1.000  H  0.132481
  H60      1.0000 0.21140  0.74270  0.36720  Biso   1.000  H  0.146077
  H61      1.0000 0.90210  0.88850  0.36880  Biso   1.000  H  0.135210
  H62      1.0000 0.69940  0.88720  0.48910  Biso   1.000  H  0.142269
  H63      1.0000 0.66830  0.77990  0.38070  Biso   1.000  H  0.141255
  H64      1.0000 0.58410  0.73970  0.44780  Biso   1.000  H  0.097283
  H65      1.0000 0.48810  0.77380  0.42600  Biso   1.000  H  0.096439
  H66      1.0000 0.43090  0.82450  0.52390  Biso   1.000  H  0.101244
  H67      1.0000 0.33580  0.80420  0.48810  Biso   1.000  H  0.103539
  H68      1.0000 0.24570  0.86700  0.52840  Biso   1.000  H  0.135453
  H69      1.0000 0.00040  0.87480  0.63100  Biso   1.000  H  0.132478
  H70      1.0000 0.21140  0.75730  0.63280  Biso   1.000  H  0.146080
  H71      1.0000 0.09790  0.11150  0.86880  Biso   1.000  H  0.135210
  H72      1.0000 0.30060  0.11280  0.98910  Biso   1.000  H  0.142286
  H73      1.0000 0.33170  0.22010  0.88070  Biso   1.000  H  0.141257
  H74      1.0000 0.41590  0.26030  0.94780  Biso   1.000  H  0.097281
  H75      1.0000 0.51190  0.22620  0.92600  Biso   1.000  H  0.096433
  H76      1.0000 0.56910  0.17550  0.02390  Biso   1.000  H  0.101247
  H77      1.0000 0.66420  0.19580  0.98810  Biso   1.000  H  0.103533
  H78      1.0000 0.75430  0.13300  0.02840  Biso   1.000  H  0.135450
  H79      1.0000 0.99960  0.12520  0.13100  Biso   1.000  H  0.132480
  H80      1.0000 0.78860  0.24270  0.13280  Biso   1.000  H  0.146078
  O1       1.0000 0.92180  0.67383  0.80208  Biso   1.000  O  -0.540592
  O2       1.0000 0.78996  0.73363  0.80410  Biso   1.000  O  -0.540505
  O3       1.0000 0.96660  0.55268  0.93567  Biso   1.000  O  -0.521199
  O4       1.0000 0.83752  0.54284  0.99622  Biso   1.000  O  -0.532196
  O5       1.0000 0.58998  0.68948  0.97037  Biso   1.000  O  -0.188970
  O6       1.0000 0.32535  0.72128  0.05925  Biso   1.000  O  -0.193122
  O7       1.0000 0.12511  0.56110  0.00994  Biso   1.000  O  -0.534683
  O8       1.0000 0.99469  0.55189  0.06948  Biso   1.000  O  -0.535370
  O9       1.0000 0.94832  0.69130  0.19733  Biso   1.000  O  -0.526872
  O10      1.0000 0.07670  0.75252  0.19821  Biso   1.000  O  -0.545598
  O11      1.0000 0.07820  0.32617  0.30208  Biso   1.000  O  -0.540589
  O12      1.0000 0.21004  0.26637  0.30410  Biso   1.000  O  -0.540509
  O13      1.0000 0.03340  0.44732  0.43567  Biso   1.000  O  -0.521186
  O14      1.0000 0.16248  0.45716  0.49622  Biso   1.000  O  -0.532202
  O15      1.0000 0.41002  0.31052  0.47037  Biso   1.000  O  -0.188980
  O16      1.0000 0.67465  0.27872  0.55925  Biso   1.000  O  -0.193119
  O17      1.0000 0.87489  0.43890  0.50994  Biso   1.000  O  -0.534593
  O18      1.0000 0.00531  0.44811  0.56948  Biso   1.000  O  -0.535330
  O19      1.0000 0.05168  0.30870  0.69733  Biso   1.000  O  -0.526856
  O20      1.0000 0.92330  0.24748  0.69821  Biso   1.000  O  -0.545483
  O21      1.0000 0.07820  0.17383  0.69792  Biso   1.000  O  -0.540580
  O22      1.0000 0.21004  0.23363  0.69590  Biso   1.000  O  -0.540371
  O23      1.0000 0.03340  0.05268  0.56433  Biso   1.000  O  -0.521174
  O24      1.0000 0.16248  0.04284  0.50378  Biso   1.000  O  -0.532081
  O25      1.0000 0.41002  0.18948  0.52963  Biso   1.000  O  -0.188959
  O26      1.0000 0.67465  0.22128  0.44075  Biso   1.000  O  -0.193118
  O27      1.0000 0.87489  0.06110  0.49006  Biso   1.000  O  -0.534686
  O28      1.0000 0.00531  0.05189  0.43052  Biso   1.000  O  -0.535334
  O29      1.0000 0.05168  0.19130  0.30267  Biso   1.000  O  -0.526874
  O30      1.0000 0.92330  0.25252  0.30179  Biso   1.000  O  -0.545597
  O31      1.0000 0.92180  0.82617  0.19792  Biso   1.000  O  -0.540596
  O32      1.0000 0.78996  0.76637  0.19590  Biso   1.000  O  -0.540507
  O33      1.0000 0.96660  0.94732  0.06433  Biso   1.000  O  -0.521204
  O34      1.0000 0.83752  0.95716  0.00378  Biso   1.000  O  -0.532180
  O35      1.0000 0.58998  0.81052  0.02963  Biso   1.000  O  -0.188977
  O36      1.0000 0.32535  0.77872  0.94075  Biso   1.000  O  -0.193116
  O37      1.0000 0.12511  0.93890  0.99006  Biso   1.000  O  -0.534666
  O38      1.0000 0.99469  0.94811  0.93052  Biso   1.000  O  -0.535340
  O39      1.0000 0.94832  0.80870  0.80267  Biso   1.000  O  -0.526876
  O40      1.0000 0.07670  0.74748  0.80179  Biso   1.000  O  -0.545594
  O41      1.0000 0.07820  0.32617  0.19792  Biso   1.000  O  -0.540589
  O42      1.0000 0.21004  0.26637  0.19590  Biso   1.000  O  -0.540508
  O43      1.0000 0.03340  0.44732  0.06433  Biso   1.000  O  -0.521188
  O44      1.0000 0.16248  0.45716  0.00378  Biso   1.000  O  -0.532203
  O45      1.0000 0.41002  0.31052  0.02963  Biso   1.000  O  -0.188981
  O46      1.0000 0.67465  0.27872  0.94075  Biso   1.000  O  -0.193119
  O47      1.0000 0.87489  0.43890  0.99006  Biso   1.000  O  -0.534594
  O48      1.0000 0.00531  0.44811  0.93052  Biso   1.000  O  -0.535333
  O49      1.0000 0.05168  0.30870  0.80267  Biso   1.000  O  -0.526855
  O50      1.0000 0.92330  0.24748  0.80179  Biso   1.000  O  -0.545482
  O51      1.0000 0.92180  0.67383  0.69792  Biso   1.000  O  -0.540593
  O52      1.0000 0.78996  0.73363  0.69590  Biso   1.000  O  -0.540506
  O53      1.0000 0.96660  0.55268  0.56433  Biso   1.000  O  -0.521196
  O54      1.0000 0.83752  0.54284  0.50378  Biso   1.000  O  -0.532194
  O55      1.0000 0.58998  0.68948  0.52963  Biso   1.000  O  -0.188970
  O56      1.0000 0.32535  0.72128  0.44075  Biso   1.000  O  -0.193121
  O57      1.0000 0.12511  0.56110  0.49006  Biso   1.000  O  -0.534682
  O58      1.0000 0.99469  0.55189  0.43052  Biso   1.000  O  -0.535367
  O59      1.0000 0.94832  0.69130  0.30267  Biso   1.000  O  -0.526873
  O60      1.0000 0.07670  0.75252  0.30179  Biso   1.000  O  -0.545599
  O61      1.0000 0.92180  0.82617  0.30208  Biso   1.000  O  -0.540597
  O62      1.0000 0.78996  0.76637  0.30410  Biso   1.000  O  -0.540508
  O63      1.0000 0.96660  0.94732  0.43567  Biso   1.000  O  -0.521201
  O64      1.0000 0.83752  0.95716  0.49622  Biso   1.000  O  -0.532179
  O65      1.0000 0.58998  0.81052  0.47037  Biso   1.000  O  -0.188976
  O66      1.0000 0.32535  0.77872  0.55925  Biso   1.000  O  -0.193115
  O67      1.0000 0.12511  0.93890  0.50994  Biso   1.000  O  -0.534664
  O68      1.0000 0.99469  0.94811  0.56948  Biso   1.000  O  -0.535337
  O69      1.0000 0.94832  0.80870  0.69733  Biso   1.000  O  -0.526877
  O70      1.0000 0.07670  0.74748  0.69821  Biso   1.000  O  -0.545595
  O71      1.0000 0.07820  0.17383  0.80208  Biso   1.000  O  -0.540580
  O72      1.0000 0.21004  0.23363  0.80410  Biso   1.000  O  -0.540371
  O73      1.0000 0.03340  0.05268  0.93567  Biso   1.000  O  -0.521176
  O74      1.0000 0.16248  0.04284  0.99622  Biso   1.000  O  -0.532083
  O75      1.0000 0.41002  0.18948  0.97037  Biso   1.000  O  -0.188959
  O76      1.0000 0.67465  0.22128  0.05925  Biso   1.000  O  -0.193119
  O77      1.0000 0.87489  0.06110  0.00994  Biso   1.000  O  -0.534687
  O78      1.0000 0.00531  0.05189  0.06948  Biso   1.000  O  -0.535337
  O79      1.0000 0.05168  0.19130  0.19733  Biso   1.000  O  -0.526873
  O80      1.0000 0.92330  0.25252  0.19821  Biso   1.000  O  -0.545596
