data_image0
_cell_length_a       16.5428
_cell_length_b       16.5428
_cell_length_c       24.3988
_cell_angle_alpha    90
_cell_angle_beta     90
_cell_angle_gamma    120

_symmetry_space_group_name_H-M    "P 1"
_symmetry_int_tables_number       1

loop_
  _symmetry_equiv_pos_as_xyz
  'x, y, z'

loop_
  _atom_site_label
  _atom_site_occupancy
  _atom_site_fract_x
  _atom_site_fract_y
  _atom_site_fract_z
  _atom_site_thermal_displace_type
  _atom_site_B_iso_or_equiv
  _atom_site_type_symbol
  _atom_site_charge
  C1       1.0000 0.97400  0.17340  0.96090  Biso   1.000  C  0.598030
  C2       1.0000 0.90730  0.20930  0.95520  Biso   1.000  C  -0.036599
  C3       1.0000 0.92980  0.29230  0.98030  Biso   1.000  C  -0.098776
  C4       1.0000 0.87270  0.33260  0.97380  Biso   1.000  C  -0.155999
  C5       1.0000 0.79450  0.29110  0.93960  Biso   1.000  C  0.081891
  C6       1.0000 0.77230  0.20490  0.91470  Biso   1.000  C  -0.150275
  C7       1.0000 0.82730  0.16340  0.92270  Biso   1.000  C  -0.100297
  C8       1.0000 0.74050  0.33850  0.92760  Biso   1.000  C  0.086629
  C9       1.0000 0.78710  0.43790  0.92900  Biso   1.000  C  -0.205766
  C10      1.0000 0.86280  0.63900  0.95650  Biso   1.000  C  -0.156817
  C11      1.0000 0.91220  0.73600  0.95600  Biso   1.000  C  -0.090560
  C12      1.0000 0.19940  0.02600  0.29423  Biso   1.000  C  0.597519
  C13      1.0000 0.30200  0.09270  0.28853  Biso   1.000  C  -0.034311
  C14      1.0000 0.36250  0.07020  0.31363  Biso   1.000  C  -0.101206
  C15      1.0000 0.45990  0.12730  0.30713  Biso   1.000  C  -0.154722
  C16      1.0000 0.49660  0.20550  0.27293  Biso   1.000  C  0.082725
  C17      1.0000 0.43260  0.22770  0.24803  Biso   1.000  C  -0.153283
  C18      1.0000 0.33610  0.17270  0.25603  Biso   1.000  C  -0.100769
  C19      1.0000 0.59800  0.25950  0.26093  Biso   1.000  C  0.088010
  C20      1.0000 0.65080  0.21290  0.26233  Biso   1.000  C  -0.205896
  C21      1.0000 0.77620  0.13720  0.28983  Biso   1.000  C  -0.157667
  C22      1.0000 0.82380  0.08780  0.28933  Biso   1.000  C  -0.092593
  C23      1.0000 0.82660  0.80060  0.62757  Biso   1.000  C  0.595357
  C24      1.0000 0.79070  0.69800  0.62187  Biso   1.000  C  -0.037768
  C25      1.0000 0.70770  0.63750  0.64697  Biso   1.000  C  -0.096785
  C26      1.0000 0.66740  0.54010  0.64047  Biso   1.000  C  -0.155735
  C27      1.0000 0.70890  0.50340  0.60627  Biso   1.000  C  0.081506
  C28      1.0000 0.79510  0.56740  0.58137  Biso   1.000  C  -0.151694
  C29      1.0000 0.83660  0.66390  0.58937  Biso   1.000  C  -0.098339
  C30      1.0000 0.66150  0.40200  0.59427  Biso   1.000  C  0.086750
  C31      1.0000 0.56210  0.34920  0.59567  Biso   1.000  C  -0.205404
  C32      1.0000 0.36100  0.22380  0.62317  Biso   1.000  C  -0.159773
  C33      1.0000 0.26400  0.17620  0.62267  Biso   1.000  C  -0.088119
  C34      1.0000 0.02600  0.82660  0.46090  Biso   1.000  C  0.598030
  C35      1.0000 0.09270  0.79070  0.45520  Biso   1.000  C  -0.036599
  C36      1.0000 0.07020  0.70770  0.48030  Biso   1.000  C  -0.098775
  C37      1.0000 0.12730  0.66740  0.47380  Biso   1.000  C  -0.155998
  C38      1.0000 0.20550  0.70890  0.43960  Biso   1.000  C  0.081892
  C39      1.0000 0.22770  0.79510  0.41470  Biso   1.000  C  -0.150275
  C40      1.0000 0.17270  0.83660  0.42270  Biso   1.000  C  -0.100298
  C41      1.0000 0.25950  0.66150  0.42760  Biso   1.000  C  0.086628
  C42      1.0000 0.21290  0.56210  0.42900  Biso   1.000  C  -0.205767
  C43      1.0000 0.13720  0.36100  0.45650  Biso   1.000  C  -0.156816
  C44      1.0000 0.08780  0.26400  0.45600  Biso   1.000  C  -0.090561
  C45      1.0000 0.80060  0.97400  0.79423  Biso   1.000  C  0.597519
  C46      1.0000 0.69800  0.90730  0.78853  Biso   1.000  C  -0.034311
  C47      1.0000 0.63750  0.92980  0.81363  Biso   1.000  C  -0.101206
  C48      1.0000 0.54010  0.87270  0.80713  Biso   1.000  C  -0.154722
  C49      1.0000 0.50340  0.79450  0.77293  Biso   1.000  C  0.082724
  C50      1.0000 0.56740  0.77230  0.74803  Biso   1.000  C  -0.153283
  C51      1.0000 0.66390  0.82730  0.75603  Biso   1.000  C  -0.100769
  C52      1.0000 0.40200  0.74050  0.76093  Biso   1.000  C  0.088011
  C53      1.0000 0.34920  0.78710  0.76233  Biso   1.000  C  -0.205896
  C54      1.0000 0.22380  0.86280  0.78983  Biso   1.000  C  -0.157667
  C55      1.0000 0.17620  0.91220  0.78933  Biso   1.000  C  -0.092594
  C56      1.0000 0.17340  0.19940  0.12757  Biso   1.000  C  0.595356
  C57      1.0000 0.20930  0.30200  0.12187  Biso   1.000  C  -0.037767
  C58      1.0000 0.29230  0.36250  0.14697  Biso   1.000  C  -0.096787
  C59      1.0000 0.33260  0.45990  0.14047  Biso   1.000  C  -0.155735
  C60      1.0000 0.29110  0.49660  0.10627  Biso   1.000  C  0.081507
  C61      1.0000 0.20490  0.43260  0.08137  Biso   1.000  C  -0.151694
  C62      1.0000 0.16340  0.33610  0.08937  Biso   1.000  C  -0.098340
  C63      1.0000 0.33850  0.59800  0.09427  Biso   1.000  C  0.086750
  C64      1.0000 0.43790  0.65080  0.09567  Biso   1.000  C  -0.205405
  C65      1.0000 0.63900  0.77620  0.12317  Biso   1.000  C  -0.159774
  C66      1.0000 0.73600  0.82380  0.12267  Biso   1.000  C  -0.088119
  C67      1.0000 0.80060  0.82660  0.37243  Biso   1.000  C  0.595357
  C68      1.0000 0.69800  0.79070  0.37813  Biso   1.000  C  -0.037767
  C69      1.0000 0.63750  0.70770  0.35303  Biso   1.000  C  -0.096786
  C70      1.0000 0.54010  0.66740  0.35953  Biso   1.000  C  -0.155736
  C71      1.0000 0.50340  0.70890  0.39373  Biso   1.000  C  0.081507
  C72      1.0000 0.56740  0.79510  0.41863  Biso   1.000  C  -0.151694
  C73      1.0000 0.66390  0.83660  0.41063  Biso   1.000  C  -0.098339
  C74      1.0000 0.40200  0.66150  0.40573  Biso   1.000  C  0.086750
  C75      1.0000 0.34920  0.56210  0.40433  Biso   1.000  C  -0.205405
  C76      1.0000 0.22380  0.36100  0.37683  Biso   1.000  C  -0.159773
  C77      1.0000 0.17620  0.26400  0.37733  Biso   1.000  C  -0.088119
  C78      1.0000 0.17340  0.97400  0.03910  Biso   1.000  C  0.598030
  C79      1.0000 0.20930  0.90730  0.04480  Biso   1.000  C  -0.036599
  C80      1.0000 0.29230  0.92980  0.01970  Biso   1.000  C  -0.098775
  C81      1.0000 0.33260  0.87270  0.02620  Biso   1.000  C  -0.155999
  C82      1.0000 0.29110  0.79450  0.06040  Biso   1.000  C  0.081892
  C83      1.0000 0.20490  0.77230  0.08530  Biso   1.000  C  -0.150275
  C84      1.0000 0.16340  0.82730  0.07730  Biso   1.000  C  -0.100297
  C85      1.0000 0.33850  0.74050  0.07240  Biso   1.000  C  0.086628
  C86      1.0000 0.43790  0.78710  0.07100  Biso   1.000  C  -0.205767
  C87      1.0000 0.63900  0.86280  0.04350  Biso   1.000  C  -0.156816
  C88      1.0000 0.73600  0.91220  0.04400  Biso   1.000  C  -0.090560
  C89      1.0000 0.02600  0.19940  0.70577  Biso   1.000  C  0.597519
  C90      1.0000 0.09270  0.30200  0.71147  Biso   1.000  C  -0.034311
  C91      1.0000 0.07020  0.36250  0.68637  Biso   1.000  C  -0.101206
  C92      1.0000 0.12730  0.45990  0.69287  Biso   1.000  C  -0.154722
  C93      1.0000 0.20550  0.49660  0.72707  Biso   1.000  C  0.082725
  C94      1.0000 0.22770  0.43260  0.75197  Biso   1.000  C  -0.153284
  C95      1.0000 0.17270  0.33610  0.74397  Biso   1.000  C  -0.100769
  C96      1.0000 0.25950  0.59800  0.73907  Biso   1.000  C  0.088010
  C97      1.0000 0.21290  0.65080  0.73767  Biso   1.000  C  -0.205897
  C98      1.0000 0.13720  0.77620  0.71017  Biso   1.000  C  -0.157667
  C99      1.0000 0.08780  0.82380  0.71067  Biso   1.000  C  -0.092593
  C100     1.0000 0.19940  0.17340  0.87243  Biso   1.000  C  0.595357
  C101     1.0000 0.30200  0.20930  0.87813  Biso   1.000  C  -0.037768
  C102     1.0000 0.36250  0.29230  0.85303  Biso   1.000  C  -0.096786
  C103     1.0000 0.45990  0.33260  0.85953  Biso   1.000  C  -0.155735
  C104     1.0000 0.49660  0.29110  0.89373  Biso   1.000  C  0.081507
  C105     1.0000 0.43260  0.20490  0.91863  Biso   1.000  C  -0.151695
  C106     1.0000 0.33610  0.16340  0.91063  Biso   1.000  C  -0.098340
  C107     1.0000 0.59800  0.33850  0.90573  Biso   1.000  C  0.086750
  C108     1.0000 0.65080  0.43790  0.90433  Biso   1.000  C  -0.205404
  C109     1.0000 0.77620  0.63900  0.87683  Biso   1.000  C  -0.159773
  C110     1.0000 0.82380  0.73600  0.87733  Biso   1.000  C  -0.088119
  C111     1.0000 0.82660  0.02600  0.53910  Biso   1.000  C  0.598030
  C112     1.0000 0.79070  0.09270  0.54480  Biso   1.000  C  -0.036600
  C113     1.0000 0.70770  0.07020  0.51970  Biso   1.000  C  -0.098775
  C114     1.0000 0.66740  0.12730  0.52620  Biso   1.000  C  -0.155998
  C115     1.0000 0.70890  0.20550  0.56040  Biso   1.000  C  0.081891
  C116     1.0000 0.79510  0.22770  0.58530  Biso   1.000  C  -0.150275
  C117     1.0000 0.83660  0.17270  0.57730  Biso   1.000  C  -0.100297
  C118     1.0000 0.66150  0.25950  0.57240  Biso   1.000  C  0.086629
  C119     1.0000 0.56210  0.21290  0.57100  Biso   1.000  C  -0.205767
  C120     1.0000 0.36100  0.13720  0.54350  Biso   1.000  C  -0.156817
  C121     1.0000 0.26400  0.08780  0.54400  Biso   1.000  C  -0.090560
  C122     1.0000 0.97400  0.80060  0.20577  Biso   1.000  C  0.597520
  C123     1.0000 0.90730  0.69800  0.21147  Biso   1.000  C  -0.034312
  C124     1.0000 0.92980  0.63750  0.18637  Biso   1.000  C  -0.101206
  C125     1.0000 0.87270  0.54010  0.19287  Biso   1.000  C  -0.154722
  C126     1.0000 0.79450  0.50340  0.22707  Biso   1.000  C  0.082725
  C127     1.0000 0.77230  0.56740  0.25197  Biso   1.000  C  -0.153283
  C128     1.0000 0.82730  0.66390  0.24397  Biso   1.000  C  -0.100769
  C129     1.0000 0.74050  0.40200  0.23907  Biso   1.000  C  0.088010
  C130     1.0000 0.78710  0.34920  0.23767  Biso   1.000  C  -0.205897
  C131     1.0000 0.86280  0.22380  0.21017  Biso   1.000  C  -0.157667
  C132     1.0000 0.91220  0.17620  0.21067  Biso   1.000  C  -0.092594
  C133     1.0000 0.64620  0.29240  0.91667  Biso   1.000  C  -0.209913
  C134     1.0000 0.74230  0.48460  0.91667  Biso   1.000  C  0.101259
  C135     1.0000 0.79530  0.59060  0.91667  Biso   1.000  C  0.080282
  C136     1.0000 0.89270  0.78540  0.91667  Biso   1.000  C  -0.042040
  C137     1.0000 0.94490  0.88980  0.91667  Biso   1.000  C  0.645117
  C138     1.0000 0.64620  0.35380  0.25000  Biso   1.000  C  -0.209616
  C139     1.0000 0.74230  0.25770  0.25000  Biso   1.000  C  0.098909
  C140     1.0000 0.79530  0.20470  0.25000  Biso   1.000  C  0.081851
  C141     1.0000 0.89270  0.10730  0.25000  Biso   1.000  C  -0.038274
  C142     1.0000 0.94490  0.05510  0.25000  Biso   1.000  C  0.644703
  C143     1.0000 0.70760  0.35380  0.58333  Biso   1.000  C  -0.209913
  C144     1.0000 0.51540  0.25770  0.58333  Biso   1.000  C  0.101259
  C145     1.0000 0.40940  0.20470  0.58333  Biso   1.000  C  0.080282
  C146     1.0000 0.21460  0.10730  0.58333  Biso   1.000  C  -0.042040
  C147     1.0000 0.11020  0.05510  0.58333  Biso   1.000  C  0.645116
  C148     1.0000 0.35380  0.70760  0.41667  Biso   1.000  C  -0.209913
  C149     1.0000 0.25770  0.51540  0.41667  Biso   1.000  C  0.101259
  C150     1.0000 0.20470  0.40940  0.41667  Biso   1.000  C  0.080282
  C151     1.0000 0.10730  0.21460  0.41667  Biso   1.000  C  -0.042040
  C152     1.0000 0.05510  0.11020  0.41667  Biso   1.000  C  0.645117
  C153     1.0000 0.35380  0.64620  0.75000  Biso   1.000  C  -0.209616
  C154     1.0000 0.25770  0.74230  0.75000  Biso   1.000  C  0.098909
  C155     1.0000 0.20470  0.79530  0.75000  Biso   1.000  C  0.081851
  C156     1.0000 0.10730  0.89270  0.75000  Biso   1.000  C  -0.038275
  C157     1.0000 0.05510  0.94490  0.75000  Biso   1.000  C  0.644704
  C158     1.0000 0.29240  0.64620  0.08333  Biso   1.000  C  -0.209913
  C159     1.0000 0.48460  0.74230  0.08333  Biso   1.000  C  0.101260
  C160     1.0000 0.59060  0.79530  0.08333  Biso   1.000  C  0.080282
  C161     1.0000 0.78540  0.89270  0.08333  Biso   1.000  C  -0.042040
  C162     1.0000 0.88980  0.94490  0.08333  Biso   1.000  C  0.645117
  H1       1.0000 0.98310  0.32210  0.00190  Biso   1.000  H  0.120143
  H2       1.0000 0.88730  0.38740  0.99230  Biso   1.000  H  0.116478
  H3       1.0000 0.71970  0.17520  0.89250  Biso   1.000  H  0.113852
  H4       1.0000 0.81090  0.10630  0.90650  Biso   1.000  H  0.125530
  H5       1.0000 0.84980  0.47110  0.93880  Biso   1.000  H  0.115340
  H6       1.0000 0.87480  0.60660  0.98340  Biso   1.000  H  0.114652
  H7       1.0000 0.95850  0.76830  0.98200  Biso   1.000  H  0.120211
  H8       1.0000 0.33900  0.01690  0.33523  Biso   1.000  H  0.120368
  H9       1.0000 0.50010  0.11270  0.32563  Biso   1.000  H  0.116330
  H10      1.0000 0.45550  0.28030  0.22583  Biso   1.000  H  0.115934
  H11      1.0000 0.29540  0.18910  0.23983  Biso   1.000  H  0.125610
  H12      1.0000 0.62130  0.15020  0.27213  Biso   1.000  H  0.115582
  H13      1.0000 0.73180  0.12520  0.31673  Biso   1.000  H  0.115259
  H14      1.0000 0.80980  0.04150  0.31533  Biso   1.000  H  0.120181
  H15      1.0000 0.67790  0.66100  0.66857  Biso   1.000  H  0.118785
  H16      1.0000 0.61260  0.49990  0.65897  Biso   1.000  H  0.116694
  H17      1.0000 0.82480  0.54450  0.55917  Biso   1.000  H  0.114364
  H18      1.0000 0.89370  0.70460  0.57317  Biso   1.000  H  0.125039
  H19      1.0000 0.52890  0.37870  0.60547  Biso   1.000  H  0.115246
  H20      1.0000 0.39340  0.26820  0.65007  Biso   1.000  H  0.115981
  H21      1.0000 0.23170  0.19020  0.64867  Biso   1.000  H  0.118618
  H22      1.0000 0.01690  0.67790  0.50190  Biso   1.000  H  0.120143
  H23      1.0000 0.11270  0.61260  0.49230  Biso   1.000  H  0.116478
  H24      1.0000 0.28030  0.82480  0.39250  Biso   1.000  H  0.113852
  H25      1.0000 0.18910  0.89370  0.40650  Biso   1.000  H  0.125531
  H26      1.0000 0.15020  0.52890  0.43880  Biso   1.000  H  0.115340
  H27      1.0000 0.12520  0.39340  0.48340  Biso   1.000  H  0.114652
  H28      1.0000 0.04150  0.23170  0.48200  Biso   1.000  H  0.120211
  H29      1.0000 0.66100  0.98310  0.83523  Biso   1.000  H  0.120367
  H30      1.0000 0.49990  0.88730  0.82563  Biso   1.000  H  0.116330
  H31      1.0000 0.54450  0.71970  0.72583  Biso   1.000  H  0.115934
  H32      1.0000 0.70460  0.81090  0.73983  Biso   1.000  H  0.125610
  H33      1.0000 0.37870  0.84980  0.77213  Biso   1.000  H  0.115582
  H34      1.0000 0.26820  0.87480  0.81673  Biso   1.000  H  0.115259
  H35      1.0000 0.19020  0.95850  0.81533  Biso   1.000  H  0.120181
  H36      1.0000 0.32210  0.33900  0.16857  Biso   1.000  H  0.118786
  H37      1.0000 0.38740  0.50010  0.15897  Biso   1.000  H  0.116694
  H38      1.0000 0.17520  0.45550  0.05917  Biso   1.000  H  0.114364
  H39      1.0000 0.10630  0.29540  0.07317  Biso   1.000  H  0.125039
  H40      1.0000 0.47110  0.62130  0.10547  Biso   1.000  H  0.115247
  H41      1.0000 0.60660  0.73180  0.15007  Biso   1.000  H  0.115981
  H42      1.0000 0.76830  0.80980  0.14867  Biso   1.000  H  0.118618
  H43      1.0000 0.66100  0.67790  0.33143  Biso   1.000  H  0.118785
  H44      1.0000 0.49990  0.61260  0.34103  Biso   1.000  H  0.116694
  H45      1.0000 0.54450  0.82480  0.44083  Biso   1.000  H  0.114365
  H46      1.0000 0.70460  0.89370  0.42683  Biso   1.000  H  0.125039
  H47      1.0000 0.37870  0.52890  0.39453  Biso   1.000  H  0.115247
  H48      1.0000 0.26820  0.39340  0.34993  Biso   1.000  H  0.115981
  H49      1.0000 0.19020  0.23170  0.35133  Biso   1.000  H  0.118618
  H50      1.0000 0.32210  0.98310  0.99810  Biso   1.000  H  0.120143
  H51      1.0000 0.38740  0.88730  0.00770  Biso   1.000  H  0.116478
  H52      1.0000 0.17520  0.71970  0.10750  Biso   1.000  H  0.113852
  H53      1.0000 0.10630  0.81090  0.09350  Biso   1.000  H  0.125530
  H54      1.0000 0.47110  0.84980  0.06120  Biso   1.000  H  0.115341
  H55      1.0000 0.60660  0.87480  0.01660  Biso   1.000  H  0.114652
  H56      1.0000 0.76830  0.95850  0.01800  Biso   1.000  H  0.120211
  H57      1.0000 0.01690  0.33900  0.66477  Biso   1.000  H  0.120367
  H58      1.0000 0.11270  0.50010  0.67437  Biso   1.000  H  0.116330
  H59      1.0000 0.28030  0.45550  0.77417  Biso   1.000  H  0.115934
  H60      1.0000 0.18910  0.29540  0.76017  Biso   1.000  H  0.125610
  H61      1.0000 0.15020  0.62130  0.72787  Biso   1.000  H  0.115582
  H62      1.0000 0.12520  0.73180  0.68327  Biso   1.000  H  0.115259
  H63      1.0000 0.04150  0.80980  0.68467  Biso   1.000  H  0.120181
  H64      1.0000 0.33900  0.32210  0.83143  Biso   1.000  H  0.118785
  H65      1.0000 0.50010  0.38740  0.84103  Biso   1.000  H  0.116694
  H66      1.0000 0.45550  0.17520  0.94083  Biso   1.000  H  0.114364
  H67      1.0000 0.29540  0.10630  0.92683  Biso   1.000  H  0.125038
  H68      1.0000 0.62130  0.47110  0.89453  Biso   1.000  H  0.115246
  H69      1.0000 0.73180  0.60660  0.84993  Biso   1.000  H  0.115981
  H70      1.0000 0.80980  0.76830  0.85133  Biso   1.000  H  0.118619
  H71      1.0000 0.67790  0.01690  0.49810  Biso   1.000  H  0.120142
  H72      1.0000 0.61260  0.11270  0.50770  Biso   1.000  H  0.116478
  H73      1.0000 0.82480  0.28030  0.60750  Biso   1.000  H  0.113852
  H74      1.0000 0.89370  0.18910  0.59350  Biso   1.000  H  0.125531
  H75      1.0000 0.52890  0.15020  0.56120  Biso   1.000  H  0.115340
  H76      1.0000 0.39340  0.12520  0.51660  Biso   1.000  H  0.114652
  H77      1.0000 0.23170  0.04150  0.51800  Biso   1.000  H  0.120211
  H78      1.0000 0.98310  0.66100  0.16477  Biso   1.000  H  0.120367
  H79      1.0000 0.88730  0.49990  0.17437  Biso   1.000  H  0.116330
  H80      1.0000 0.71970  0.54450  0.27417  Biso   1.000  H  0.115934
  H81      1.0000 0.81090  0.70460  0.26017  Biso   1.000  H  0.125610
  H82      1.0000 0.84980  0.37870  0.22787  Biso   1.000  H  0.115582
  H83      1.0000 0.87480  0.26820  0.18327  Biso   1.000  H  0.115258
  H84      1.0000 0.95850  0.19020  0.18467  Biso   1.000  H  0.120181
  H85      1.0000 0.61380  0.22760  0.91667  Biso   1.000  H  0.116638
  H86      1.0000 0.61380  0.38620  0.25000  Biso   1.000  H  0.114504
  H87      1.0000 0.77240  0.38620  0.58333  Biso   1.000  H  0.116638
  H88      1.0000 0.38620  0.77240  0.41667  Biso   1.000  H  0.116638
  H89      1.0000 0.38620  0.61380  0.75000  Biso   1.000  H  0.114504
  H90      1.0000 0.22760  0.61380  0.08333  Biso   1.000  H  0.116638
  La1      1.0000 0.08098  0.08098  0.00000  Biso   1.000  La  1.901338
  La2      1.0000 1.00000  0.91902  0.33333  Biso   1.000  La  1.900829
  La3      1.0000 0.91902  0.00000  0.66667  Biso   1.000  La  1.900837
  La4      1.0000 0.91902  0.91902  0.50000  Biso   1.000  La  1.901332
  La5      1.0000 0.00000  0.08098  0.83333  Biso   1.000  La  1.900829
  La6      1.0000 0.08098  0.00000  0.16667  Biso   1.000  La  1.900823
  O1       1.0000 0.96410  0.10590  0.93020  Biso   1.000  O  -0.691652
  O2       1.0000 0.03700  0.20850  0.99560  Biso   1.000  O  -0.585242
  O3       1.0000 0.00160  0.92980  0.95510  Biso   1.000  O  -0.616802
  O4       1.0000 0.14180  0.03590  0.26353  Biso   1.000  O  -0.691643
  O5       1.0000 0.17150  0.96300  0.32893  Biso   1.000  O  -0.585164
  O6       1.0000 0.92820  0.99840  0.28843  Biso   1.000  O  -0.616867
  O7       1.0000 0.89410  0.85820  0.59687  Biso   1.000  O  -0.689892
  O8       1.0000 0.79150  0.82850  0.66227  Biso   1.000  O  -0.584232
  O9       1.0000 0.07020  0.07180  0.62177  Biso   1.000  O  -0.616846
  O10      1.0000 0.03590  0.89410  0.43020  Biso   1.000  O  -0.691651
  O11      1.0000 0.96300  0.79150  0.49560  Biso   1.000  O  -0.585240
  O12      1.0000 0.99840  0.07020  0.45510  Biso   1.000  O  -0.616800
  O13      1.0000 0.85820  0.96410  0.76353  Biso   1.000  O  -0.691642
  O14      1.0000 0.82850  0.03700  0.82893  Biso   1.000  O  -0.585166
  O15      1.0000 0.07180  0.00160  0.78843  Biso   1.000  O  -0.616866
  O16      1.0000 0.10590  0.14180  0.09687  Biso   1.000  O  -0.689892
  O17      1.0000 0.20850  0.17150  0.16227  Biso   1.000  O  -0.584229
  O18      1.0000 0.92980  0.92820  0.12177  Biso   1.000  O  -0.616846
  O19      1.0000 0.85820  0.89410  0.40313  Biso   1.000  O  -0.689892
  O20      1.0000 0.82850  0.79150  0.33773  Biso   1.000  O  -0.584231
  O21      1.0000 0.07180  0.07020  0.37823  Biso   1.000  O  -0.616846
  O22      1.0000 0.10590  0.96410  0.06980  Biso   1.000  O  -0.691650
  O23      1.0000 0.20850  0.03700  0.00440  Biso   1.000  O  -0.585239
  O24      1.0000 0.92980  0.00160  0.04490  Biso   1.000  O  -0.616801
  O25      1.0000 0.03590  0.14180  0.73647  Biso   1.000  O  -0.691643
  O26      1.0000 0.96300  0.17150  0.67107  Biso   1.000  O  -0.585166
  O27      1.0000 0.99840  0.92820  0.71157  Biso   1.000  O  -0.616868
  O28      1.0000 0.14180  0.10590  0.90313  Biso   1.000  O  -0.689890
  O29      1.0000 0.17150  0.20850  0.83773  Biso   1.000  O  -0.584232
  O30      1.0000 0.92820  0.92980  0.87823  Biso   1.000  O  -0.616846
  O31      1.0000 0.89410  0.03590  0.56980  Biso   1.000  O  -0.691652
  O32      1.0000 0.79150  0.96300  0.50440  Biso   1.000  O  -0.585241
  O33      1.0000 0.07020  0.99840  0.54490  Biso   1.000  O  -0.616801
  O34      1.0000 0.96410  0.85820  0.23647  Biso   1.000  O  -0.691640
  O35      1.0000 0.03700  0.82850  0.17107  Biso   1.000  O  -0.585164
  O36      1.0000 0.00160  0.07180  0.21157  Biso   1.000  O  -0.616866
