data_image0
_cell_length_a       18.6086
_cell_length_b       20.2422
_cell_length_c       20.8135
_cell_angle_alpha    70.421
_cell_angle_beta     68.955
_cell_angle_gamma    68.031

_symmetry_space_group_name_H-M    "P 1"
_symmetry_int_tables_number       1

loop_
  _symmetry_equiv_pos_as_xyz
  'x, y, z'

loop_
  _atom_site_label
  _atom_site_occupancy
  _atom_site_fract_x
  _atom_site_fract_y
  _atom_site_fract_z
  _atom_site_thermal_displace_type
  _atom_site_B_iso_or_equiv
  _atom_site_type_symbol
  _atom_site_charge
  C1       1.0000 0.46040  0.43260  0.39470  Biso   1.000  C  0.626610
  C2       1.0000 0.94010  0.68930  0.88070  Biso   1.000  C  0.621258
  C3       1.0000 0.97510  0.91910  0.88560  Biso   1.000  C  0.609823
  C4       1.0000 0.20030  0.20760  0.60260  Biso   1.000  C  0.610771
  C5       1.0000 0.17810  0.09030  0.68290  Biso   1.000  C  -0.154271
  C6       1.0000 0.50920  0.54010  0.37700  Biso   1.000  C  -0.109054
  C7       1.0000 0.50600  0.48770  0.34780  Biso   1.000  C  -0.022067
  C8       1.0000 0.99680  0.03510  0.80280  Biso   1.000  C  -0.162060
  C9       1.0000 0.63450  0.64030  0.22160  Biso   1.000  C  -0.146256
  C10      1.0000 0.54290  0.48780  0.27830  Biso   1.000  C  -0.174429
  C11      1.0000 0.98490  0.63690  0.83200  Biso   1.000  C  -0.025578
  C12      1.0000 0.12950  0.04680  0.73380  Biso   1.000  C  0.087959
  C13      1.0000 0.58930  0.59030  0.26420  Biso   1.000  C  0.082013
  C14      1.0000 0.14690  0.16300  0.65370  Biso   1.000  C  -0.032992
  C15      1.0000 0.54870  0.59080  0.33610  Biso   1.000  C  -0.129259
  C16      1.0000 0.04560  0.07890  0.75240  Biso   1.000  C  0.090963
  C17      1.0000 0.94310  0.60430  0.81460  Biso   1.000  C  -0.120090
  C18      1.0000 0.02890  0.96320  0.83270  Biso   1.000  C  -0.013223
  C19      1.0000 0.04150  0.60910  0.26770  Biso   1.000  C  0.080291
  C20      1.0000 0.99210  0.65550  0.22230  Biso   1.000  C  -0.155190
  C21      1.0000 0.10830  0.49270  0.69640  Biso   1.000  C  -0.156348
  C22      1.0000 0.58890  0.99720  0.34090  Biso   1.000  C  -0.128976
  C23      1.0000 0.54140  0.04690  0.38170  Biso   1.000  C  -0.109519
  C24      1.0000 0.51820  0.12200  0.35200  Biso   1.000  C  -0.024344
  C25      1.0000 0.61610  0.02140  0.26710  Biso   1.000  C  0.081827
  C26      1.0000 0.14010  0.50880  0.35470  Biso   1.000  C  -0.023943
  C27      1.0000 0.06680  0.53930  0.74320  Biso   1.000  C  0.085074
  C28      1.0000 0.06000  0.54290  0.38460  Biso   1.000  C  -0.109862
  C29      1.0000 0.46410  0.17490  0.39750  Biso   1.000  C  0.614427
  C30      1.0000 0.11160  0.93250  0.81280  Biso   1.000  C  -0.110144
  C31      1.0000 0.01160  0.59360  0.34250  Biso   1.000  C  -0.125679
  C32      1.0000 0.66350  0.07380  0.11950  Biso   1.000  C  -0.105350
  C33      1.0000 0.67530  0.63860  0.15230  Biso   1.000  C  -0.036919
  C34      1.0000 0.62050  0.12200  0.16000  Biso   1.000  C  -0.147121
  C35      1.0000 0.23260  0.42830  0.61770  Biso   1.000  C  0.612286
  C36      1.0000 0.02200  0.66720  0.15030  Biso   1.000  C  -0.018797
  C37      1.0000 0.72370  0.69060  0.10790  Biso   1.000  C  0.616832
  C38      1.0000 0.19300  0.45350  0.40020  Biso   1.000  C  0.605920
  C39      1.0000 0.66240  0.97310  0.22230  Biso   1.000  C  -0.155192
  C40      1.0000 0.68640  0.99850  0.15010  Biso   1.000  C  -0.014744
  C41      1.0000 0.16190  0.97200  0.76420  Biso   1.000  C  -0.144486
  C42      1.0000 0.19010  0.47760  0.66800  Biso   1.000  C  -0.026735
  C43      1.0000 0.59330  0.09780  0.23600  Biso   1.000  C  0.074888
  C44      1.0000 0.73450  0.94470  0.10360  Biso   1.000  C  0.598623
  C45      1.0000 0.54410  0.14700  0.28040  Biso   1.000  C  -0.171595
  C46      1.0000 0.96750  0.71340  0.10320  Biso   1.000  C  0.605769
  C47      1.0000 0.10380  0.63160  0.12120  Biso   1.000  C  -0.103460
  C48      1.0000 0.06750  0.62050  0.80530  Biso   1.000  C  -0.158022
  C49      1.0000 0.15220  0.58780  0.16180  Biso   1.000  C  -0.152430
  C50      1.0000 0.10970  0.57240  0.76090  Biso   1.000  C  0.093553
  C51      1.0000 0.12350  0.57350  0.23790  Biso   1.000  C  0.078639
  C52      1.0000 0.58620  0.53800  0.23500  Biso   1.000  C  0.091983
  C53      1.0000 0.17210  0.52450  0.28250  Biso   1.000  C  -0.173022
  C54      1.0000 0.19330  0.55520  0.73180  Biso   1.000  C  -0.143038
  C55      1.0000 0.98160  0.55550  0.77240  Biso   1.000  C  -0.140443
  C56      1.0000 0.23290  0.50890  0.68700  Biso   1.000  C  -0.109054
  C57      1.0000 0.01490  0.15150  0.72140  Biso   1.000  C  -0.140046
  C58      1.0000 0.67140  0.58510  0.12340  Biso   1.000  C  -0.117686
  C59      1.0000 0.59170  0.97960  0.74480  Biso   1.000  C  -0.140095
  C60      1.0000 0.58930  0.05330  0.71270  Biso   1.000  C  0.089103
  C61      1.0000 0.46970  0.21520  0.59920  Biso   1.000  C  0.615268
  C62      1.0000 0.06250  0.19350  0.67400  Biso   1.000  C  -0.105470
  C63      1.0000 0.52780  0.17150  0.64300  Biso   1.000  C  -0.026588
  C64      1.0000 0.73820  0.92910  0.85690  Biso   1.000  C  0.620089
  C65      1.0000 0.53740  0.09800  0.66910  Biso   1.000  C  -0.159029
  C66      1.0000 0.68740  0.97310  0.80480  Biso   1.000  C  -0.019308
  C67      1.0000 0.62690  0.53780  0.16350  Biso   1.000  C  -0.153112
  C68      1.0000 0.57370  0.20370  0.65770  Biso   1.000  C  -0.111057
  C69      1.0000 0.68140  0.04450  0.77530  Biso   1.000  C  -0.159554
  C70      1.0000 0.63340  0.08690  0.72840  Biso   1.000  C  0.093534
  C71      1.0000 0.64430  0.93900  0.78820  Biso   1.000  C  -0.131537
  C72      1.0000 0.62620  0.16150  0.69910  Biso   1.000  C  -0.145107
  C73      1.0000 0.53960  0.56740  0.60530  Biso   1.000  C  0.626610
  C74      1.0000 0.05990  0.31070  0.11930  Biso   1.000  C  0.621258
  C75      1.0000 0.02490  0.08090  0.11440  Biso   1.000  C  0.609823
  C76      1.0000 0.79970  0.79240  0.39740  Biso   1.000  C  0.610770
  C77      1.0000 0.82190  0.90970  0.31710  Biso   1.000  C  -0.154271
  C78      1.0000 0.49080  0.45990  0.62300  Biso   1.000  C  -0.109054
  C79      1.0000 0.49400  0.51230  0.65220  Biso   1.000  C  -0.022067
  C80      1.0000 0.00320  0.96490  0.19720  Biso   1.000  C  -0.162060
  C81      1.0000 0.36550  0.35970  0.77840  Biso   1.000  C  -0.146256
  C82      1.0000 0.45710  0.51220  0.72170  Biso   1.000  C  -0.174429
  C83      1.0000 0.01510  0.36310  0.16800  Biso   1.000  C  -0.025578
  C84      1.0000 0.87050  0.95320  0.26620  Biso   1.000  C  0.087959
  C85      1.0000 0.41070  0.40970  0.73580  Biso   1.000  C  0.082013
  C86      1.0000 0.85310  0.83700  0.34630  Biso   1.000  C  -0.032992
  C87      1.0000 0.45130  0.40920  0.66390  Biso   1.000  C  -0.129259
  C88      1.0000 0.95440  0.92110  0.24760  Biso   1.000  C  0.090963
  C89      1.0000 0.05690  0.39570  0.18540  Biso   1.000  C  -0.120090
  C90      1.0000 0.97110  0.03680  0.16730  Biso   1.000  C  -0.013223
  C91      1.0000 0.95850  0.39090  0.73230  Biso   1.000  C  0.080291
  C92      1.0000 0.00790  0.34450  0.77770  Biso   1.000  C  -0.155190
  C93      1.0000 0.89170  0.50730  0.30360  Biso   1.000  C  -0.156348
  C94      1.0000 0.41110  0.00280  0.65910  Biso   1.000  C  -0.128976
  C95      1.0000 0.45860  0.95310  0.61830  Biso   1.000  C  -0.109519
  C96      1.0000 0.48180  0.87800  0.64800  Biso   1.000  C  -0.024345
  C97      1.0000 0.38390  0.97860  0.73290  Biso   1.000  C  0.081827
  C98      1.0000 0.85990  0.49120  0.64530  Biso   1.000  C  -0.023943
  C99      1.0000 0.93320  0.46070  0.25680  Biso   1.000  C  0.085074
  C100     1.0000 0.94000  0.45710  0.61540  Biso   1.000  C  -0.109862
  C101     1.0000 0.53590  0.82510  0.60250  Biso   1.000  C  0.614427
  C102     1.0000 0.88840  0.06750  0.18720  Biso   1.000  C  -0.110144
  C103     1.0000 0.98840  0.40640  0.65750  Biso   1.000  C  -0.125679
  C104     1.0000 0.33650  0.92620  0.88050  Biso   1.000  C  -0.105350
  C105     1.0000 0.32470  0.36140  0.84770  Biso   1.000  C  -0.036919
  C106     1.0000 0.37950  0.87800  0.84000  Biso   1.000  C  -0.147120
  C107     1.0000 0.76740  0.57170  0.38230  Biso   1.000  C  0.612286
  C108     1.0000 0.97800  0.33280  0.84970  Biso   1.000  C  -0.018797
  C109     1.0000 0.27630  0.30940  0.89210  Biso   1.000  C  0.616832
  C110     1.0000 0.80700  0.54650  0.59980  Biso   1.000  C  0.605920
  C111     1.0000 0.33760  0.02690  0.77770  Biso   1.000  C  -0.155192
  C112     1.0000 0.31360  0.00150  0.84990  Biso   1.000  C  -0.014744
  C113     1.0000 0.83810  0.02800  0.23580  Biso   1.000  C  -0.144486
  C114     1.0000 0.80990  0.52240  0.33200  Biso   1.000  C  -0.026735
  C115     1.0000 0.40670  0.90220  0.76400  Biso   1.000  C  0.074887
  C116     1.0000 0.26550  0.05530  0.89640  Biso   1.000  C  0.598623
  C117     1.0000 0.45590  0.85300  0.71960  Biso   1.000  C  -0.171595
  C118     1.0000 0.03250  0.28660  0.89680  Biso   1.000  C  0.605769
  C119     1.0000 0.89620  0.36840  0.87880  Biso   1.000  C  -0.103460
  C120     1.0000 0.93250  0.37950  0.19470  Biso   1.000  C  -0.158022
  C121     1.0000 0.84780  0.41220  0.83820  Biso   1.000  C  -0.152430
  C122     1.0000 0.89030  0.42760  0.23910  Biso   1.000  C  0.093553
  C123     1.0000 0.87650  0.42650  0.76210  Biso   1.000  C  0.078639
  C124     1.0000 0.41380  0.46200  0.76500  Biso   1.000  C  0.091983
  C125     1.0000 0.82790  0.47550  0.71750  Biso   1.000  C  -0.173022
  C126     1.0000 0.80670  0.44480  0.26820  Biso   1.000  C  -0.143038
  C127     1.0000 0.01840  0.44450  0.22760  Biso   1.000  C  -0.140443
  C128     1.0000 0.76710  0.49110  0.31300  Biso   1.000  C  -0.109054
  C129     1.0000 0.98510  0.84850  0.27860  Biso   1.000  C  -0.140046
  C130     1.0000 0.32860  0.41490  0.87660  Biso   1.000  C  -0.117686
  C131     1.0000 0.40830  0.02040  0.25520  Biso   1.000  C  -0.140096
  C132     1.0000 0.41070  0.94670  0.28730  Biso   1.000  C  0.089103
  C133     1.0000 0.53030  0.78480  0.40080  Biso   1.000  C  0.615268
  C134     1.0000 0.93750  0.80650  0.32600  Biso   1.000  C  -0.105471
  C135     1.0000 0.47220  0.82850  0.35700  Biso   1.000  C  -0.026588
  C136     1.0000 0.26180  0.07090  0.14310  Biso   1.000  C  0.620089
  C137     1.0000 0.46260  0.90200  0.33090  Biso   1.000  C  -0.159029
  C138     1.0000 0.31260  0.02690  0.19520  Biso   1.000  C  -0.019308
  C139     1.0000 0.37310  0.46220  0.83650  Biso   1.000  C  -0.153112
  C140     1.0000 0.42630  0.79630  0.34230  Biso   1.000  C  -0.111057
  C141     1.0000 0.31860  0.95550  0.22470  Biso   1.000  C  -0.159554
  C142     1.0000 0.36660  0.91310  0.27160  Biso   1.000  C  0.093534
  C143     1.0000 0.35570  0.06100  0.21180  Biso   1.000  C  -0.131537
  C144     1.0000 0.37380  0.83850  0.30090  Biso   1.000  C  -0.145107
  H1       1.0000 0.23330  0.06890  0.66870  Biso   1.000  H  0.115850
  H2       1.0000 0.48410  0.53990  0.42460  Biso   1.000  H  0.123255
  H3       1.0000 0.94140  0.05590  0.81590  Biso   1.000  H  0.124220
  H4       1.0000 0.63650  0.67470  0.24090  Biso   1.000  H  0.131919
  H5       1.0000 0.53940  0.45410  0.25920  Biso   1.000  H  0.124698
  H6       1.0000 0.54910  0.62590  0.35540  Biso   1.000  H  0.122117
  H7       1.0000 0.88740  0.61590  0.83220  Biso   1.000  H  0.111705
  H8       1.0000 0.93840  0.67850  0.24180  Biso   1.000  H  0.131704
  H9       1.0000 0.07990  0.47160  0.68430  Biso   1.000  H  0.113512
  H10      1.0000 0.60310  0.94750  0.36200  Biso   1.000  H  0.125988
  H11      1.0000 0.52420  0.03010  0.43050  Biso   1.000  H  0.120352
  H12      1.0000 0.03880  0.53140  0.43340  Biso   1.000  H  0.124619
  H13      1.0000 0.13360  0.88370  0.83320  Biso   1.000  H  0.118049
  H14      1.0000 0.95900  0.61780  0.36330  Biso   1.000  H  0.123863
  H15      1.0000 0.67830  0.09040  0.07060  Biso   1.000  H  0.123353
  H16      1.0000 0.60800  0.17180  0.13900  Biso   1.000  H  0.118834
  H17      1.0000 0.67710  0.92300  0.24180  Biso   1.000  H  0.131085
  H18      1.0000 0.21700  0.94980  0.75120  Biso   1.000  H  0.117716
  H19      1.0000 0.52920  0.19700  0.26050  Biso   1.000  H  0.124985
  H20      1.0000 0.12410  0.63940  0.07230  Biso   1.000  H  0.120492
  H21      1.0000 0.09550  0.64220  0.81730  Biso   1.000  H  0.127276
  H22      1.0000 0.20560  0.56580  0.14080  Biso   1.000  H  0.118527
  H23      1.0000 0.22610  0.50270  0.26310  Biso   1.000  H  0.122018
  H24      1.0000 0.22260  0.57590  0.74340  Biso   1.000  H  0.114641
  H25      1.0000 0.95260  0.53290  0.76270  Biso   1.000  H  0.113381
  H26      1.0000 0.28850  0.49810  0.66900  Biso   1.000  H  0.110869
  H27      1.0000 0.95950  0.17260  0.73330  Biso   1.000  H  0.117344
  H28      1.0000 0.69950  0.58270  0.07670  Biso   1.000  H  0.117600
  H29      1.0000 0.55960  0.95830  0.73760  Biso   1.000  H  0.122016
  H30      1.0000 0.03930  0.24250  0.65490  Biso   1.000  H  0.111960
  H31      1.0000 0.50870  0.07650  0.65770  Biso   1.000  H  0.115154
  H32      1.0000 0.62350  0.50490  0.14330  Biso   1.000  H  0.120181
  H33      1.0000 0.56860  0.25340  0.63960  Biso   1.000  H  0.118779
  H34      1.0000 0.71000  0.06660  0.78630  Biso   1.000  H  0.126540
  H35      1.0000 0.65090  0.88900  0.80620  Biso   1.000  H  0.110489
  H36      1.0000 0.65720  0.18310  0.70750  Biso   1.000  H  0.121643
  H37      1.0000 0.76670  0.93110  0.33130  Biso   1.000  H  0.115850
  H38      1.0000 0.51590  0.46010  0.57540  Biso   1.000  H  0.123255
  H39      1.0000 0.05860  0.94410  0.18410  Biso   1.000  H  0.124220
  H40      1.0000 0.36350  0.32530  0.75910  Biso   1.000  H  0.131919
  H41      1.0000 0.46060  0.54590  0.74080  Biso   1.000  H  0.124698
  H42      1.0000 0.45090  0.37410  0.64460  Biso   1.000  H  0.122117
  H43      1.0000 0.11260  0.38410  0.16780  Biso   1.000  H  0.111705
  H44      1.0000 0.06160  0.32150  0.75820  Biso   1.000  H  0.131704
  H45      1.0000 0.92010  0.52840  0.31570  Biso   1.000  H  0.113512
  H46      1.0000 0.39690  0.05250  0.63800  Biso   1.000  H  0.125988
  H47      1.0000 0.47580  0.96990  0.56950  Biso   1.000  H  0.120352
  H48      1.0000 0.96120  0.46860  0.56660  Biso   1.000  H  0.124619
  H49      1.0000 0.86640  0.11630  0.16680  Biso   1.000  H  0.118049
  H50      1.0000 0.04100  0.38220  0.63670  Biso   1.000  H  0.123863
  H51      1.0000 0.32170  0.90960  0.92940  Biso   1.000  H  0.123353
  H52      1.0000 0.39200  0.82820  0.86100  Biso   1.000  H  0.118833
  H53      1.0000 0.32290  0.07700  0.75820  Biso   1.000  H  0.131085
  H54      1.0000 0.78300  0.05020  0.24880  Biso   1.000  H  0.117716
  H55      1.0000 0.47080  0.80300  0.73950  Biso   1.000  H  0.124985
  H56      1.0000 0.87590  0.36060  0.92770  Biso   1.000  H  0.120492
  H57      1.0000 0.90450  0.35780  0.18270  Biso   1.000  H  0.127276
  H58      1.0000 0.79440  0.43420  0.85920  Biso   1.000  H  0.118526
  H59      1.0000 0.77390  0.49730  0.73690  Biso   1.000  H  0.122018
  H60      1.0000 0.77740  0.42410  0.25660  Biso   1.000  H  0.114641
  H61      1.0000 0.04740  0.46710  0.23730  Biso   1.000  H  0.113381
  H62      1.0000 0.71150  0.50190  0.33100  Biso   1.000  H  0.110869
  H63      1.0000 0.04050  0.82740  0.26670  Biso   1.000  H  0.117344
  H64      1.0000 0.30050  0.41730  0.92330  Biso   1.000  H  0.117600
  H65      1.0000 0.44040  0.04170  0.26240  Biso   1.000  H  0.122016
  H66      1.0000 0.96070  0.75750  0.34510  Biso   1.000  H  0.111959
  H67      1.0000 0.49130  0.92350  0.34230  Biso   1.000  H  0.115154
  H68      1.0000 0.37650  0.49510  0.85670  Biso   1.000  H  0.120180
  H69      1.0000 0.43140  0.74660  0.36040  Biso   1.000  H  0.118779
  H70      1.0000 0.29000  0.93340  0.21370  Biso   1.000  H  0.126540
  H71      1.0000 0.34910  0.11100  0.19380  Biso   1.000  H  0.110489
  H72      1.0000 0.34280  0.81690  0.29250  Biso   1.000  H  0.121643
  O1       1.0000 0.33436  0.31732  0.48980  Biso   1.000  O  -1.018579
  O2       1.0000 0.83428  0.81613  0.99137  Biso   1.000  O  -1.024087
  O3       1.0000 0.00620  0.85140  0.90356  Biso   1.000  O  -0.541885
  O4       1.0000 0.15640  0.42470  0.46280  Biso   1.000  O  -0.529079
  O5       1.0000 0.43030  0.14789  0.45914  Biso   1.000  O  -0.510594
  O6       1.0000 0.19140  0.40440  0.59990  Biso   1.000  O  -0.549645
  O7       1.0000 0.27420  0.17412  0.58436  Biso   1.000  O  -0.548344
  O8       1.0000 0.90270  0.95270  0.90710  Biso   1.000  O  -0.555497
  O9       1.0000 0.30780  0.41410  0.59730  Biso   1.000  O  -0.547167
  O10      1.0000 0.43910  0.42840  0.45977  Biso   1.000  O  -0.531482
  O11      1.0000 0.98580  0.71120  0.89800  Biso   1.000  O  -0.561901
  O12      1.0000 0.73210  0.72900  0.14030  Biso   1.000  O  -0.537055
  O13      1.0000 0.46290  0.28324  0.57665  Biso   1.000  O  -0.559332
  O14      1.0000 0.75300  0.97130  0.03757  Biso   1.000  O  -0.538726
  O15      1.0000 0.00010  0.72190  0.03732  Biso   1.000  O  -0.546161
  O16      1.0000 0.74400  0.96810  0.89120  Biso   1.000  O  -0.539985
  O17      1.0000 0.44660  0.39590  0.36567  Biso   1.000  O  -0.580539
  O18      1.0000 0.89560  0.74100  0.13166  Biso   1.000  O  -0.539275
  O19      1.0000 0.74990  0.87770  0.13396  Biso   1.000  O  -0.534825
  O20      1.0000 0.43220  0.18260  0.58860  Biso   1.000  O  -0.538474
  O21      1.0000 0.16750  0.27430  0.57922  Biso   1.000  O  -0.539105
  O22      1.0000 0.86700  0.70680  0.89888  Biso   1.000  O  -0.543154
  O23      1.0000 0.26640  0.43970  0.37587  Biso   1.000  O  -0.564727
  O24      1.0000 0.45550  0.24180  0.37050  Biso   1.000  O  -0.582283
  O25      1.0000 0.75660  0.69030  0.04520  Biso   1.000  O  -0.566292
  O26      1.0000 0.76241  0.86330  0.86618  Biso   1.000  O  -0.548794
  O27      1.0000 0.66564  0.68268  0.51020  Biso   1.000  O  -1.018579
  O28      1.0000 0.16572  0.18387  0.00863  Biso   1.000  O  -1.024087
  O29      1.0000 0.99380  0.14860  0.09644  Biso   1.000  O  -0.541885
  O30      1.0000 0.84360  0.57530  0.53720  Biso   1.000  O  -0.529079
  O31      1.0000 0.56970  0.85211  0.54086  Biso   1.000  O  -0.510594
  O32      1.0000 0.80860  0.59560  0.40010  Biso   1.000  O  -0.549645
  O33      1.0000 0.72580  0.82588  0.41564  Biso   1.000  O  -0.548344
  O34      1.0000 0.09730  0.04730  0.09290  Biso   1.000  O  -0.555497
  O35      1.0000 0.69220  0.58590  0.40270  Biso   1.000  O  -0.547168
  O36      1.0000 0.56090  0.57160  0.54023  Biso   1.000  O  -0.531482
  O37      1.0000 0.01420  0.28880  0.10200  Biso   1.000  O  -0.561901
  O38      1.0000 0.26790  0.27100  0.85970  Biso   1.000  O  -0.537055
  O39      1.0000 0.53710  0.71676  0.42335  Biso   1.000  O  -0.559332
  O40      1.0000 0.24700  0.02870  0.96243  Biso   1.000  O  -0.538726
  O41      1.0000 0.99990  0.27810  0.96268  Biso   1.000  O  -0.546161
  O42      1.0000 0.25600  0.03190  0.10880  Biso   1.000  O  -0.539985
  O43      1.0000 0.55340  0.60410  0.63433  Biso   1.000  O  -0.580539
  O44      1.0000 0.10440  0.25900  0.86834  Biso   1.000  O  -0.539275
  O45      1.0000 0.25010  0.12230  0.86604  Biso   1.000  O  -0.534825
  O46      1.0000 0.56780  0.81740  0.41140  Biso   1.000  O  -0.538474
  O47      1.0000 0.83250  0.72570  0.42078  Biso   1.000  O  -0.539105
  O48      1.0000 0.13300  0.29320  0.10112  Biso   1.000  O  -0.543154
  O49      1.0000 0.73360  0.56030  0.62413  Biso   1.000  O  -0.564727
  O50      1.0000 0.54450  0.75820  0.62950  Biso   1.000  O  -0.582283
  O51      1.0000 0.24340  0.30970  0.95480  Biso   1.000  O  -0.566292
  O52      1.0000 0.23759  0.13670  0.13382  Biso   1.000  O  -0.548794
  Zn1      1.0000 0.36447  0.21225  0.52309  Biso   1.000  Zn  0.924482
  Zn2      1.0000 0.38468  0.35848  0.52669  Biso   1.000  Zn  0.964091
  Zn3      1.0000 0.21932  0.35233  0.52529  Biso   1.000  Zn  0.920196
  Zn4      1.0000 0.36429  0.34106  0.38270  Biso   1.000  Zn  1.031294
  Zn5      1.0000 0.80098  0.79175  0.09395  Biso   1.000  Zn  0.939217
  Zn6      1.0000 0.80413  0.92156  0.95983  Biso   1.000  Zn  0.931175
  Zn7      1.0000 0.94887  0.77754  0.95973  Biso   1.000  Zn  0.961080
  Zn8      1.0000 0.77454  0.77668  0.95546  Biso   1.000  Zn  1.023495
  Zn9      1.0000 0.63553  0.78775  0.47691  Biso   1.000  Zn  0.924482
  Zn10     1.0000 0.61532  0.64152  0.47331  Biso   1.000  Zn  0.964091
  Zn11     1.0000 0.78068  0.64767  0.47471  Biso   1.000  Zn  0.920196
  Zn12     1.0000 0.63571  0.65894  0.61730  Biso   1.000  Zn  1.031294
  Zn13     1.0000 0.19902  0.20825  0.90605  Biso   1.000  Zn  0.939217
  Zn14     1.0000 0.19587  0.07844  0.04017  Biso   1.000  Zn  0.931175
  Zn15     1.0000 0.05113  0.22246  0.04027  Biso   1.000  Zn  0.961080
  Zn16     1.0000 0.22546  0.22332  0.04454  Biso   1.000  Zn  1.023495
