data_image0
_cell_length_a       17.3043
_cell_length_b       18.377
_cell_length_c       17.9565
_cell_angle_alpha    90
_cell_angle_beta     90
_cell_angle_gamma    90

_symmetry_space_group_name_H-M    "P 1"
_symmetry_int_tables_number       1

loop_
  _symmetry_equiv_pos_as_xyz
  'x, y, z'

loop_
  _atom_site_label
  _atom_site_occupancy
  _atom_site_fract_x
  _atom_site_fract_y
  _atom_site_fract_z
  _atom_site_thermal_displace_type
  _atom_site_B_iso_or_equiv
  _atom_site_type_symbol
  _atom_site_charge
  C1       1.0000 0.76502  0.31693  0.33495  Biso   1.000  C  0.610086
  C2       1.0000 0.34693  0.62544  0.00427  Biso   1.000  C  -0.131377
  C3       1.0000 0.76402  0.37607  0.27698  Biso   1.000  C  -0.034757
  C4       1.0000 0.76163  0.48945  0.16741  Biso   1.000  C  -0.024991
  C5       1.0000 0.76097  0.54809  0.10893  Biso   1.000  C  0.611658
  C6       1.0000 0.82272  0.48371  0.21895  Biso   1.000  C  -0.092920
  C7       1.0000 0.70140  0.43802  0.17214  Biso   1.000  C  -0.088344
  C8       1.0000 0.70284  0.38196  0.22557  Biso   1.000  C  -0.095758
  C9       1.0000 0.82381  0.42807  0.27292  Biso   1.000  C  -0.090349
  C10      1.0000 0.09327  0.70341  0.90818  Biso   1.000  C  -0.084397
  C11      1.0000 0.17481  0.70497  0.90891  Biso   1.000  C  -0.133449
  C12      1.0000 0.17462  0.65964  0.03492  Biso   1.000  C  -0.128292
  C13      1.0000 0.76184  0.81693  0.10744  Biso   1.000  C  0.600148
  C14      1.0000 0.09795  0.12675  0.50784  Biso   1.000  C  -0.091340
  C15      1.0000 0.76296  0.87604  0.16571  Biso   1.000  C  -0.027239
  C16      1.0000 0.76543  0.98891  0.27625  Biso   1.000  C  -0.030335
  C17      1.0000 0.76619  0.04782  0.33467  Biso   1.000  C  0.605304
  C18      1.0000 0.71389  0.99171  0.21548  Biso   1.000  C  -0.096923
  C19      1.0000 0.81588  0.92875  0.28062  Biso   1.000  C  -0.095798
  C20      1.0000 0.81462  0.87333  0.22639  Biso   1.000  C  -0.089005
  C21      1.0000 0.71269  0.93631  0.16121  Biso   1.000  C  -0.088048
  C22      1.0000 0.43339  0.16544  0.53644  Biso   1.000  C  -0.084622
  C23      1.0000 0.09833  0.23785  0.43628  Biso   1.000  C  -0.092631
  C24      1.0000 0.17991  0.23707  0.43542  Biso   1.000  C  -0.130640
  C25      1.0000 0.76554  0.31606  0.60835  Biso   1.000  C  0.607830
  C26      1.0000 0.42846  0.62454  0.00269  Biso   1.000  C  -0.088322
  C27      1.0000 0.76490  0.37472  0.66709  Biso   1.000  C  -0.024313
  C28      1.0000 0.76251  0.48745  0.77773  Biso   1.000  C  -0.029622
  C29      1.0000 0.76135  0.54673  0.83575  Biso   1.000  C  0.604026
  C30      1.0000 0.81424  0.49014  0.71712  Biso   1.000  C  -0.094517
  C31      1.0000 0.71215  0.42722  0.78218  Biso   1.000  C  -0.096298
  C32      1.0000 0.71339  0.37184  0.72789  Biso   1.000  C  -0.088147
  C33      1.0000 0.81540  0.43482  0.66281  Biso   1.000  C  -0.094312
  C34      1.0000 0.09306  0.65980  0.03484  Biso   1.000  C  -0.089111
  C35      1.0000 0.42846  0.74110  0.94093  Biso   1.000  C  -0.091292
  C36      1.0000 0.34687  0.74089  0.94053  Biso   1.000  C  -0.133177
  C37      1.0000 0.76143  0.81602  0.83405  Biso   1.000  C  0.611566
  C38      1.0000 0.17952  0.12715  0.50873  Biso   1.000  C  -0.130913
  C39      1.0000 0.76218  0.87490  0.77578  Biso   1.000  C  -0.033524
  C40      1.0000 0.76461  0.98852  0.66642  Biso   1.000  C  -0.027057
  C41      1.0000 0.76538  0.04743  0.60818  Biso   1.000  C  0.608043
  C42      1.0000 0.70444  0.98366  0.71905  Biso   1.000  C  -0.087833
  C43      1.0000 0.82386  0.93599  0.66989  Biso   1.000  C  -0.085052
  C44      1.0000 0.82234  0.87977  0.72317  Biso   1.000  C  -0.098405
  C45      1.0000 0.70335  0.92794  0.77291  Biso   1.000  C  -0.095519
  C46      1.0000 0.43315  0.19533  0.40567  Biso   1.000  C  -0.084049
  C47      1.0000 0.35156  0.19610  0.40601  Biso   1.000  C  -0.136817
  C48      1.0000 0.35183  0.16493  0.53645  Biso   1.000  C  -0.134586
  C49      1.0000 0.47070  0.68266  0.97155  Biso   1.000  C  -0.047405
  C50      1.0000 0.96362  0.68147  0.97125  Biso   1.000  C  0.607985
  C51      1.0000 0.55794  0.68241  0.97133  Biso   1.000  C  0.609041
  C52      1.0000 0.30456  0.68320  0.97253  Biso   1.000  C  0.071679
  C53      1.0000 0.05089  0.68140  0.97136  Biso   1.000  C  -0.046213
  C54      1.0000 0.21705  0.68272  0.97216  Biso   1.000  C  0.076751
  C55      1.0000 0.05596  0.18234  0.47193  Biso   1.000  C  -0.041966
  C56      1.0000 0.56301  0.18117  0.47108  Biso   1.000  C  0.612304
  C57      1.0000 0.96881  0.18230  0.47162  Biso   1.000  C  0.610219
  C58      1.0000 0.22199  0.18181  0.47189  Biso   1.000  C  0.071697
  C59      1.0000 0.47563  0.18059  0.47104  Biso   1.000  C  -0.047433
  C60      1.0000 0.30942  0.18096  0.47144  Biso   1.000  C  0.080214
  C61      1.0000 0.23424  0.68388  0.39106  Biso   1.000  C  0.607682
  C62      1.0000 0.65320  0.37426  0.99589  Biso   1.000  C  -0.135073
  C63      1.0000 0.23478  0.62516  0.33242  Biso   1.000  C  -0.026303
  C64      1.0000 0.23704  0.51228  0.22192  Biso   1.000  C  -0.029109
  C65      1.0000 0.23820  0.45300  0.16387  Biso   1.000  C  0.604653
  C66      1.0000 0.18615  0.50913  0.28317  Biso   1.000  C  -0.095087
  C67      1.0000 0.28661  0.57303  0.21680  Biso   1.000  C  -0.097789
  C68      1.0000 0.28539  0.62851  0.27098  Biso   1.000  C  -0.089188
  C69      1.0000 0.18507  0.56454  0.33742  Biso   1.000  C  -0.089281
  C70      1.0000 0.90668  0.33795  0.96448  Biso   1.000  C  -0.082877
  C71      1.0000 0.23890  0.18379  0.16516  Biso   1.000  C  0.609346
  C72      1.0000 0.90203  0.87331  0.49064  Biso   1.000  C  -0.092440
  C73      1.0000 0.23825  0.12495  0.22340  Biso   1.000  C  -0.030434
  C74      1.0000 0.23584  0.01146  0.33280  Biso   1.000  C  -0.024717
  C75      1.0000 0.23493  0.95252  0.39097  Biso   1.000  C  0.608549
  C76      1.0000 0.29647  0.01675  0.28070  Biso   1.000  C  -0.095702
  C77      1.0000 0.17621  0.06358  0.32889  Biso   1.000  C  -0.085761
  C78      1.0000 0.17770  0.11972  0.27557  Biso   1.000  C  -0.095572
  C79      1.0000 0.29759  0.07246  0.22684  Biso   1.000  C  -0.094363
  C80      1.0000 0.56674  0.80159  0.59300  Biso   1.000  C  -0.086733
  C81      1.0000 0.90167  0.76296  0.56345  Biso   1.000  C  -0.088169
  C82      1.0000 0.82011  0.76373  0.56437  Biso   1.000  C  -0.131360
  C83      1.0000 0.23455  0.68324  0.66451  Biso   1.000  C  0.605522
  C84      1.0000 0.57168  0.37551  0.99750  Biso   1.000  C  -0.086256
  C85      1.0000 0.23551  0.62415  0.72254  Biso   1.000  C  -0.032390
  C86      1.0000 0.23784  0.51091  0.83232  Biso   1.000  C  -0.026207
  C87      1.0000 0.23860  0.45221  0.89077  Biso   1.000  C  0.612858
  C88      1.0000 0.17627  0.51718  0.78136  Biso   1.000  C  -0.090719
  C89      1.0000 0.29854  0.56180  0.82696  Biso   1.000  C  -0.090084
  C90      1.0000 0.29719  0.61775  0.77337  Biso   1.000  C  -0.092743
  C91      1.0000 0.17519  0.57276  0.72732  Biso   1.000  C  -0.091179
  C92      1.0000 0.90660  0.29617  0.09180  Biso   1.000  C  -0.086843
  C93      1.0000 0.82505  0.29466  0.09117  Biso   1.000  C  -0.134295
  C94      1.0000 0.82512  0.33830  0.96454  Biso   1.000  C  -0.132565
  C95      1.0000 0.57116  0.25861  0.05862  Biso   1.000  C  -0.088573
  C96      1.0000 0.65276  0.25853  0.05916  Biso   1.000  C  -0.134381
  C97      1.0000 0.23878  0.18350  0.89140  Biso   1.000  C  0.606574
  C98      1.0000 0.82049  0.87297  0.48990  Biso   1.000  C  -0.127919
  C99      1.0000 0.23809  0.12471  0.83280  Biso   1.000  C  -0.025755
  C100     1.0000 0.23536  0.01179  0.72231  Biso   1.000  C  -0.035383
  C101     1.0000 0.23423  0.95261  0.66415  Biso   1.000  C  0.607217
  C102     1.0000 0.28587  0.00823  0.78384  Biso   1.000  C  -0.096029
  C103     1.0000 0.18640  0.07296  0.71692  Biso   1.000  C  -0.093353
  C104     1.0000 0.18783  0.12843  0.77110  Biso   1.000  C  -0.087320
  C105     1.0000 0.28718  0.06365  0.83808  Biso   1.000  C  -0.092122
  C106     1.0000 0.56640  0.83760  0.46384  Biso   1.000  C  -0.084351
  C107     1.0000 0.64792  0.83840  0.46385  Biso   1.000  C  -0.135084
  C108     1.0000 0.64834  0.80125  0.59268  Biso   1.000  C  -0.137501
  C109     1.0000 0.52917  0.31738  0.02828  Biso   1.000  C  -0.049116
  C110     1.0000 0.03626  0.31760  0.02830  Biso   1.000  C  0.607942
  C111     1.0000 0.44193  0.31778  0.02827  Biso   1.000  C  0.607855
  C112     1.0000 0.69531  0.31619  0.02740  Biso   1.000  C  0.074804
  C113     1.0000 0.94895  0.31735  0.02825  Biso   1.000  C  -0.044539
  C114     1.0000 0.78277  0.31626  0.02773  Biso   1.000  C  0.076728
  C115     1.0000 0.94401  0.81814  0.52721  Biso   1.000  C  -0.044369
  C116     1.0000 0.43689  0.81859  0.52826  Biso   1.000  C  0.613162
  C117     1.0000 0.03116  0.81810  0.52754  Biso   1.000  C  0.611158
  C118     1.0000 0.77797  0.81869  0.52741  Biso   1.000  C  0.071548
  C119     1.0000 0.52425  0.81923  0.52839  Biso   1.000  C  -0.044900
  C120     1.0000 0.69045  0.81956  0.52807  Biso   1.000  C  0.081801
  H1       1.0000 0.31684  0.57975  0.02863  Biso   1.000  H  0.109311
  H2       1.0000 0.87022  0.52205  0.21730  Biso   1.000  H  0.117619
  H3       1.0000 0.65253  0.44143  0.13476  Biso   1.000  H  0.111607
  H4       1.0000 0.65551  0.34344  0.22693  Biso   1.000  H  0.113700
  H5       1.0000 0.87207  0.42547  0.31123  Biso   1.000  H  0.113651
  H6       1.0000 0.06333  0.72050  0.85820  Biso   1.000  H  0.110041
  H7       1.0000 0.20487  0.72276  0.85930  Biso   1.000  H  0.102401
  H8       1.0000 0.20455  0.64265  0.08495  Biso   1.000  H  0.102090
  H9       1.0000 0.06769  0.08310  0.53590  Biso   1.000  H  0.117056
  H10      1.0000 0.67413  0.03687  0.20977  Biso   1.000  H  0.114250
  H11      1.0000 0.85675  0.92445  0.32606  Biso   1.000  H  0.112031
  H12      1.0000 0.85450  0.82827  0.23199  Biso   1.000  H  0.118592
  H13      1.0000 0.67210  0.94076  0.11555  Biso   1.000  H  0.115781
  H14      1.0000 0.46349  0.15353  0.58792  Biso   1.000  H  0.112559
  H15      1.0000 0.06828  0.28146  0.40785  Biso   1.000  H  0.111656
  H16      1.0000 0.21023  0.28042  0.40687  Biso   1.000  H  0.107936
  H17      1.0000 0.45851  0.57857  0.02680  Biso   1.000  H  0.115780
  H18      1.0000 0.85412  0.53523  0.71152  Biso   1.000  H  0.115958
  H19      1.0000 0.67139  0.42283  0.82770  Biso   1.000  H  0.110623
  H20      1.0000 0.67358  0.32671  0.73349  Biso   1.000  H  0.118025
  H21      1.0000 0.85607  0.43926  0.61722  Biso   1.000  H  0.116173
  H22      1.0000 0.06289  0.64232  0.08459  Biso   1.000  H  0.112311
  H23      1.0000 0.45860  0.78679  0.91627  Biso   1.000  H  0.111522
  H24      1.0000 0.31675  0.78665  0.91600  Biso   1.000  H  0.108947
  H25      1.0000 0.20964  0.08353  0.53680  Biso   1.000  H  0.104735
  H26      1.0000 0.65769  0.02284  0.71844  Biso   1.000  H  0.114135
  H27      1.0000 0.87200  0.93860  0.63156  Biso   1.000  H  0.111601
  H28      1.0000 0.86903  0.84054  0.72368  Biso   1.000  H  0.112998
  H29      1.0000 0.65591  0.92617  0.81220  Biso   1.000  H  0.113422
  H30      1.0000 0.46302  0.20703  0.35406  Biso   1.000  H  0.111041
  H31      1.0000 0.32132  0.20771  0.35457  Biso   1.000  H  0.102016
  H32      1.0000 0.32181  0.15326  0.58804  Biso   1.000  H  0.107829
  H33      1.0000 0.68355  0.41993  0.97171  Biso   1.000  H  0.109329
  H34      1.0000 0.14694  0.46360  0.28935  Biso   1.000  H  0.114395
  H35      1.0000 0.32670  0.57781  0.17075  Biso   1.000  H  0.110503
  H36      1.0000 0.32453  0.67406  0.26479  Biso   1.000  H  0.119515
  H37      1.0000 0.14514  0.55969  0.38357  Biso   1.000  H  0.114641
  H38      1.0000 0.93676  0.35446  0.91436  Biso   1.000  H  0.111814
  H39      1.0000 0.93231  0.91661  0.46199  Biso   1.000  H  0.114753
  H40      1.0000 0.34351  0.97790  0.28176  Biso   1.000  H  0.116383
  H41      1.0000 0.12773  0.06064  0.36680  Biso   1.000  H  0.112260
  H42      1.0000 0.13071  0.15862  0.27465  Biso   1.000  H  0.111636
  H43      1.0000 0.34545  0.07467  0.18805  Biso   1.000  H  0.113674
  H44      1.0000 0.53685  0.78723  0.64393  Biso   1.000  H  0.111178
  H45      1.0000 0.93170  0.71963  0.59232  Biso   1.000  H  0.110348
  H46      1.0000 0.78995  0.72059  0.59338  Biso   1.000  H  0.106774
  H47      1.0000 0.54184  0.42176  0.97368  Biso   1.000  H  0.115197
  H48      1.0000 0.12837  0.47933  0.78355  Biso   1.000  H  0.115845
  H49      1.0000 0.34773  0.55801  0.86393  Biso   1.000  H  0.111342
  H50      1.0000 0.34501  0.65570  0.77138  Biso   1.000  H  0.111581
  H51      1.0000 0.12655  0.57583  0.68951  Biso   1.000  H  0.114033
  H52      1.0000 0.93658  0.27973  0.14199  Biso   1.000  H  0.110833
  H53      1.0000 0.79500  0.27745  0.14102  Biso   1.000  H  0.103418
  H54      1.0000 0.79510  0.35467  0.91434  Biso   1.000  H  0.101859
  H55      1.0000 0.54082  0.21285  0.08291  Biso   1.000  H  0.110602
  H56      1.0000 0.68271  0.21259  0.08351  Biso   1.000  H  0.108992
  H57      1.0000 0.79051  0.91638  0.46129  Biso   1.000  H  0.105225
  H58      1.0000 0.32462  0.96239  0.79028  Biso   1.000  H  0.115514
  H59      1.0000 0.14657  0.07802  0.67071  Biso   1.000  H  0.110315
  H60      1.0000 0.14914  0.17431  0.76465  Biso   1.000  H  0.118903
  H61      1.0000 0.32683  0.05850  0.88442  Biso   1.000  H  0.116044
  H62      1.0000 0.53629  0.85185  0.41300  Biso   1.000  H  0.111670
  H63      1.0000 0.67774  0.85268  0.41282  Biso   1.000  H  0.106188
  H64      1.0000 0.67845  0.78742  0.64365  Biso   1.000  H  0.104898
  O1       1.0000 0.71483  0.54304  0.05380  Biso   1.000  O  -0.553843
  O2       1.0000 0.81112  0.32184  0.39015  Biso   1.000  O  -0.556686
  O3       1.0000 0.80690  0.60218  0.11443  Biso   1.000  O  -0.556423
  O4       1.0000 0.71955  0.26252  0.32890  Biso   1.000  O  -0.557586
  O5       1.0000 0.92679  0.68091  0.03285  Biso   1.000  O  -0.558174
  O6       1.0000 0.81201  0.04274  0.39016  Biso   1.000  O  -0.552786
  O7       1.0000 0.71584  0.82196  0.05205  Biso   1.000  O  -0.550580
  O8       1.0000 0.72063  0.10221  0.32863  Biso   1.000  O  -0.556727
  O9       1.0000 0.80713  0.76234  0.11359  Biso   1.000  O  -0.551106
  O10      1.0000 0.59992  0.18187  0.40952  Biso   1.000  O  -0.563387
  O11      1.0000 0.71526  0.54196  0.89108  Biso   1.000  O  -0.555245
  O12      1.0000 0.81140  0.32137  0.55288  Biso   1.000  O  -0.552558
  O13      1.0000 0.80670  0.60124  0.82941  Biso   1.000  O  -0.554209
  O14      1.0000 0.71996  0.26166  0.61411  Biso   1.000  O  -0.555950
  O15      1.0000 0.92684  0.68226  0.90962  Biso   1.000  O  -0.561171
  O16      1.0000 0.81156  0.04256  0.55305  Biso   1.000  O  -0.553945
  O17      1.0000 0.71560  0.82127  0.88942  Biso   1.000  O  -0.555376
  O18      1.0000 0.71960  0.10160  0.61394  Biso   1.000  O  -0.552770
  O19      1.0000 0.80689  0.76159  0.82817  Biso   1.000  O  -0.559375
  O20      1.0000 0.59982  0.18100  0.53273  Biso   1.000  O  -0.560596
  O21      1.0000 0.76088  0.68196  0.97140  Biso   1.000  O  -1.065249
  O22      1.0000 0.59455  0.62210  0.97271  Biso   1.000  O  -0.562402
  O23      1.0000 0.59491  0.74253  0.97000  Biso   1.000  O  -0.559350
  O24      1.0000 0.76591  0.18202  0.47140  Biso   1.000  O  -1.064455
  O25      1.0000 0.93214  0.12204  0.47302  Biso   1.000  O  -0.560407
  O26      1.0000 0.93199  0.24248  0.47009  Biso   1.000  O  -0.560230
  O27      1.0000 0.28426  0.45788  0.10852  Biso   1.000  O  -0.555063
  O28      1.0000 0.18838  0.67867  0.44655  Biso   1.000  O  -0.553299
  O29      1.0000 0.19294  0.39842  0.17017  Biso   1.000  O  -0.553166
  O30      1.0000 0.27992  0.73822  0.38521  Biso   1.000  O  -0.554501
  O31      1.0000 0.07305  0.31702  0.08991  Biso   1.000  O  -0.561762
  O32      1.0000 0.18865  0.95741  0.44601  Biso   1.000  O  -0.551726
  O33      1.0000 0.28463  0.17858  0.10971  Biso   1.000  O  -0.557030
  O34      1.0000 0.28070  0.89833  0.38527  Biso   1.000  O  -0.555139
  O35      1.0000 0.19335  0.23813  0.17110  Biso   1.000  O  -0.556901
  O36      1.0000 0.40018  0.81881  0.46656  Biso   1.000  O  -0.561486
  O37      1.0000 0.28494  0.45712  0.94576  Biso   1.000  O  -0.554402
  O38      1.0000 0.18843  0.67834  0.60932  Biso   1.000  O  -0.553790
  O39      1.0000 0.19266  0.39812  0.88529  Biso   1.000  O  -0.555691
  O40      1.0000 0.28007  0.73761  0.67050  Biso   1.000  O  -0.556273
  O41      1.0000 0.07307  0.31839  0.96668  Biso   1.000  O  -0.557864
  O42      1.0000 0.18839  0.95766  0.60866  Biso   1.000  O  -0.555885
  O43      1.0000 0.28447  0.17823  0.94699  Biso   1.000  O  -0.554681
  O44      1.0000 0.27948  0.89802  0.67041  Biso   1.000  O  -0.553807
  O45      1.0000 0.19338  0.23802  0.88538  Biso   1.000  O  -0.553563
  O46      1.0000 0.39992  0.81785  0.58977  Biso   1.000  O  -0.563605
  O47      1.0000 0.23903  0.31798  0.02797  Biso   1.000  O  -1.065978
  O48      1.0000 0.40533  0.37810  0.02698  Biso   1.000  O  -0.559805
  O49      1.0000 0.40500  0.25767  0.02933  Biso   1.000  O  -0.560328
  O50      1.0000 0.23405  0.81806  0.52784  Biso   1.000  O  -1.066370
  O51      1.0000 0.06792  0.87831  0.52610  Biso   1.000  O  -0.560929
  O52      1.0000 0.06788  0.75787  0.52915  Biso   1.000  O  -0.558014
  Zn1      1.0000 0.82343  0.68187  0.05543  Biso   1.000  Zn  0.997738
  Zn2      1.0000 0.70347  0.18217  0.38723  Biso   1.000  Zn  0.996262
  Zn3      1.0000 0.82335  0.68180  0.88725  Biso   1.000  Zn  0.997726
  Zn4      1.0000 0.70327  0.18165  0.55539  Biso   1.000  Zn  0.996493
  Zn5      1.0000 0.69809  0.60007  0.97216  Biso   1.000  Zn  0.993940
  Zn6      1.0000 0.69856  0.76411  0.97082  Biso   1.000  Zn  0.996059
  Zn7      1.0000 0.82864  0.10012  0.47186  Biso   1.000  Zn  0.993266
  Zn8      1.0000 0.82835  0.26413  0.47115  Biso   1.000  Zn  0.998908
  Zn9      1.0000 0.17656  0.31789  0.11217  Biso   1.000  Zn  0.997020
  Zn10     1.0000 0.29676  0.81827  0.44386  Biso   1.000  Zn  0.998863
  Zn11     1.0000 0.17649  0.31810  0.94398  Biso   1.000  Zn  0.996454
  Zn12     1.0000 0.29638  0.81785  0.61202  Biso   1.000  Zn  0.996431
  Zn13     1.0000 0.30169  0.39997  0.02736  Biso   1.000  Zn  0.993214
  Zn14     1.0000 0.30147  0.23591  0.02840  Biso   1.000  Zn  0.998349
  Zn15     1.0000 0.17147  0.90004  0.52724  Biso   1.000  Zn  0.991081
  Zn16     1.0000 0.17146  0.73603  0.52822  Biso   1.000  Zn  0.997868
