data_image0
_cell_length_a       14.1273
_cell_length_b       23.6972
_cell_length_c       23.6972
_cell_angle_alpha    90
_cell_angle_beta     90
_cell_angle_gamma    90

_symmetry_space_group_name_H-M    "P 1"
_symmetry_int_tables_number       1

loop_
  _symmetry_equiv_pos_as_xyz
  'x, y, z'

loop_
  _atom_site_label
  _atom_site_occupancy
  _atom_site_fract_x
  _atom_site_fract_y
  _atom_site_fract_z
  _atom_site_thermal_displace_type
  _atom_site_B_iso_or_equiv
  _atom_site_type_symbol
  _atom_site_charge
  C1       1.0000 0.02450  0.92850  0.47100  Biso   1.000  C  0.646463
  C2       1.0000 0.95380  0.93080  0.42282  Biso   1.000  C  -0.016410
  C3       1.0000 0.86280  0.94980  0.43456  Biso   1.000  C  -0.129624
  C4       1.0000 0.79680  0.95470  0.39133  Biso   1.000  C  0.000385
  C5       1.0000 0.82180  0.94070  0.33637  Biso   1.000  C  -0.152922
  C6       1.0000 0.91280  0.92170  0.32463  Biso   1.000  C  0.082953
  C7       1.0000 0.97882  0.91680  0.36786  Biso   1.000  C  -0.140008
  C8       1.0000 0.69930  0.97330  0.40390  Biso   1.000  C  0.631851
  C9       1.0000 0.93810  0.90540  0.26505  Biso   1.000  C  0.046676
  C10      1.0000 0.88030  0.87180  0.23159  Biso   1.000  C  0.093420
  C11      1.0000 0.90630  0.85970  0.17633  Biso   1.000  C  -0.035074
  C12      1.0000 0.99020  0.88120  0.15452  Biso   1.000  C  0.229487
  C13      1.0000 0.04810  0.91490  0.18798  Biso   1.000  C  0.010210
  C14      1.0000 0.02200  0.92700  0.24324  Biso   1.000  C  -0.210186
  C15      1.0000 0.79270  0.84240  0.25620  Biso   1.000  C  -0.522066
  C16      1.0000 0.14810  0.93620  0.16470  Biso   1.000  C  0.292629
  C17      1.0000 0.13200  0.97260  0.11490  Biso   1.000  C  -0.535356
  C18      1.0000 0.20950  0.88520  0.14750  Biso   1.000  C  -0.539345
  C19      1.0000 0.20110  0.97210  0.20670  Biso   1.000  C  -0.532941
  C20      1.0000 0.52450  0.07150  0.52900  Biso   1.000  C  0.646463
  C21      1.0000 0.45380  0.06920  0.57718  Biso   1.000  C  -0.016410
  C22      1.0000 0.36280  0.05020  0.56544  Biso   1.000  C  -0.129624
  C23      1.0000 0.29680  0.04530  0.60867  Biso   1.000  C  0.000385
  C24      1.0000 0.32180  0.05930  0.66363  Biso   1.000  C  -0.152922
  C25      1.0000 0.41280  0.07830  0.67537  Biso   1.000  C  0.082953
  C26      1.0000 0.47882  0.08320  0.63214  Biso   1.000  C  -0.140008
  C27      1.0000 0.19930  0.02670  0.59610  Biso   1.000  C  0.631851
  C28      1.0000 0.43810  0.09460  0.73495  Biso   1.000  C  0.046676
  C29      1.0000 0.38030  0.12820  0.76841  Biso   1.000  C  0.093420
  C30      1.0000 0.40630  0.14030  0.82367  Biso   1.000  C  -0.035074
  C31      1.0000 0.49020  0.11880  0.84548  Biso   1.000  C  0.229487
  C32      1.0000 0.54810  0.08510  0.81202  Biso   1.000  C  0.010210
  C33      1.0000 0.52200  0.07300  0.75676  Biso   1.000  C  -0.210186
  C34      1.0000 0.29270  0.15760  0.74380  Biso   1.000  C  -0.522066
  C35      1.0000 0.64810  0.06380  0.83530  Biso   1.000  C  0.292629
  C36      1.0000 0.63200  0.02740  0.88510  Biso   1.000  C  -0.535356
  C37      1.0000 0.70950  0.11480  0.85250  Biso   1.000  C  -0.539345
  C38      1.0000 0.70110  0.02790  0.79330  Biso   1.000  C  -0.532941
  C39      1.0000 0.77450  0.52900  0.92850  Biso   1.000  C  0.646463
  C40      1.0000 0.70380  0.57718  0.93080  Biso   1.000  C  -0.016410
  C41      1.0000 0.61280  0.56544  0.94980  Biso   1.000  C  -0.129624
  C42      1.0000 0.54680  0.60867  0.95470  Biso   1.000  C  0.000385
  C43      1.0000 0.57180  0.66363  0.94070  Biso   1.000  C  -0.152922
  C44      1.0000 0.66280  0.67537  0.92170  Biso   1.000  C  0.082953
  C45      1.0000 0.72882  0.63214  0.91680  Biso   1.000  C  -0.140008
  C46      1.0000 0.44930  0.59610  0.97330  Biso   1.000  C  0.631851
  C47      1.0000 0.68810  0.73495  0.90540  Biso   1.000  C  0.046675
  C48      1.0000 0.63030  0.76841  0.87180  Biso   1.000  C  0.093420
  C49      1.0000 0.65630  0.82367  0.85970  Biso   1.000  C  -0.035074
  C50      1.0000 0.74020  0.84548  0.88120  Biso   1.000  C  0.229487
  C51      1.0000 0.79810  0.81202  0.91490  Biso   1.000  C  0.010210
  C52      1.0000 0.77200  0.75676  0.92700  Biso   1.000  C  -0.210186
  C53      1.0000 0.54270  0.74380  0.84240  Biso   1.000  C  -0.522066
  C54      1.0000 0.89810  0.83530  0.93620  Biso   1.000  C  0.292629
  C55      1.0000 0.88200  0.88510  0.97260  Biso   1.000  C  -0.535356
  C56      1.0000 0.95950  0.85250  0.88520  Biso   1.000  C  -0.539345
  C57      1.0000 0.95110  0.79330  0.97210  Biso   1.000  C  -0.532941
  C58      1.0000 0.27450  0.47100  0.07150  Biso   1.000  C  0.646463
  C59      1.0000 0.20380  0.42282  0.06920  Biso   1.000  C  -0.016410
  C60      1.0000 0.11280  0.43456  0.05020  Biso   1.000  C  -0.129624
  C61      1.0000 0.04680  0.39133  0.04530  Biso   1.000  C  0.000385
  C62      1.0000 0.07180  0.33637  0.05930  Biso   1.000  C  -0.152922
  C63      1.0000 0.16280  0.32463  0.07830  Biso   1.000  C  0.082953
  C64      1.0000 0.22882  0.36786  0.08320  Biso   1.000  C  -0.140008
  C65      1.0000 0.94930  0.40390  0.02670  Biso   1.000  C  0.631851
  C66      1.0000 0.18810  0.26505  0.09460  Biso   1.000  C  0.046676
  C67      1.0000 0.13030  0.23159  0.12820  Biso   1.000  C  0.093420
  C68      1.0000 0.15630  0.17633  0.14030  Biso   1.000  C  -0.035074
  C69      1.0000 0.24020  0.15452  0.11880  Biso   1.000  C  0.229487
  C70      1.0000 0.29810  0.18798  0.08510  Biso   1.000  C  0.010210
  C71      1.0000 0.27200  0.24324  0.07300  Biso   1.000  C  -0.210186
  C72      1.0000 0.04270  0.25620  0.15760  Biso   1.000  C  -0.522066
  C73      1.0000 0.39810  0.16470  0.06380  Biso   1.000  C  0.292629
  C74      1.0000 0.38200  0.11490  0.02740  Biso   1.000  C  -0.535356
  C75      1.0000 0.45950  0.14750  0.11480  Biso   1.000  C  -0.539345
  C76      1.0000 0.45110  0.20670  0.02790  Biso   1.000  C  -0.532941
  C77      1.0000 0.97550  0.07150  0.47100  Biso   1.000  C  0.646463
  C78      1.0000 0.04620  0.06920  0.42282  Biso   1.000  C  -0.016410
  C79      1.0000 0.13720  0.05020  0.43456  Biso   1.000  C  -0.129624
  C80      1.0000 0.20320  0.04530  0.39133  Biso   1.000  C  0.000385
  C81      1.0000 0.17820  0.05930  0.33637  Biso   1.000  C  -0.152922
  C82      1.0000 0.08720  0.07830  0.32463  Biso   1.000  C  0.082953
  C83      1.0000 0.02118  0.08320  0.36786  Biso   1.000  C  -0.140008
  C84      1.0000 0.30070  0.02670  0.40390  Biso   1.000  C  0.631851
  C85      1.0000 0.06190  0.09460  0.26505  Biso   1.000  C  0.046675
  C86      1.0000 0.11970  0.12820  0.23159  Biso   1.000  C  0.093420
  C87      1.0000 0.09370  0.14030  0.17633  Biso   1.000  C  -0.035074
  C88      1.0000 0.00980  0.11880  0.15452  Biso   1.000  C  0.229487
  C89      1.0000 0.95190  0.08510  0.18798  Biso   1.000  C  0.010210
  C90      1.0000 0.97800  0.07300  0.24324  Biso   1.000  C  -0.210186
  C91      1.0000 0.20730  0.15760  0.25620  Biso   1.000  C  -0.522066
  C92      1.0000 0.85190  0.06380  0.16470  Biso   1.000  C  0.292629
  C93      1.0000 0.86800  0.02740  0.11490  Biso   1.000  C  -0.535356
  C94      1.0000 0.79050  0.11480  0.14750  Biso   1.000  C  -0.539345
  C95      1.0000 0.79890  0.02790  0.20670  Biso   1.000  C  -0.532941
  C96      1.0000 0.47550  0.92850  0.52900  Biso   1.000  C  0.646463
  C97      1.0000 0.54620  0.93080  0.57718  Biso   1.000  C  -0.016410
  C98      1.0000 0.63720  0.94980  0.56544  Biso   1.000  C  -0.129624
  C99      1.0000 0.70320  0.95470  0.60867  Biso   1.000  C  0.000385
  C100     1.0000 0.67820  0.94070  0.66363  Biso   1.000  C  -0.152922
  C101     1.0000 0.58720  0.92170  0.67537  Biso   1.000  C  0.082953
  C102     1.0000 0.52118  0.91680  0.63214  Biso   1.000  C  -0.140008
  C103     1.0000 0.80070  0.97330  0.59610  Biso   1.000  C  0.631851
  C104     1.0000 0.56190  0.90540  0.73495  Biso   1.000  C  0.046676
  C105     1.0000 0.61970  0.87180  0.76841  Biso   1.000  C  0.093420
  C106     1.0000 0.59370  0.85970  0.82367  Biso   1.000  C  -0.035074
  C107     1.0000 0.50980  0.88120  0.84548  Biso   1.000  C  0.229487
  C108     1.0000 0.45190  0.91490  0.81202  Biso   1.000  C  0.010210
  C109     1.0000 0.47800  0.92700  0.75676  Biso   1.000  C  -0.210186
  C110     1.0000 0.70730  0.84240  0.74380  Biso   1.000  C  -0.522066
  C111     1.0000 0.35190  0.93620  0.83530  Biso   1.000  C  0.292629
  C112     1.0000 0.36800  0.97260  0.88510  Biso   1.000  C  -0.535356
  C113     1.0000 0.29050  0.88520  0.85250  Biso   1.000  C  -0.539345
  C114     1.0000 0.29890  0.97210  0.79330  Biso   1.000  C  -0.532941
  C115     1.0000 0.22550  0.47100  0.92850  Biso   1.000  C  0.646463
  C116     1.0000 0.29620  0.42282  0.93080  Biso   1.000  C  -0.016410
  C117     1.0000 0.38720  0.43456  0.94980  Biso   1.000  C  -0.129624
  C118     1.0000 0.45320  0.39133  0.95470  Biso   1.000  C  0.000385
  C119     1.0000 0.42820  0.33637  0.94070  Biso   1.000  C  -0.152922
  C120     1.0000 0.33720  0.32463  0.92170  Biso   1.000  C  0.082953
  C121     1.0000 0.27118  0.36786  0.91680  Biso   1.000  C  -0.140008
  C122     1.0000 0.55070  0.40390  0.97330  Biso   1.000  C  0.631851
  C123     1.0000 0.31190  0.26505  0.90540  Biso   1.000  C  0.046675
  C124     1.0000 0.36970  0.23159  0.87180  Biso   1.000  C  0.093420
  C125     1.0000 0.34370  0.17633  0.85970  Biso   1.000  C  -0.035074
  C126     1.0000 0.25980  0.15452  0.88120  Biso   1.000  C  0.229487
  C127     1.0000 0.20190  0.18798  0.91490  Biso   1.000  C  0.010210
  C128     1.0000 0.22800  0.24324  0.92700  Biso   1.000  C  -0.210186
  C129     1.0000 0.45730  0.25620  0.84240  Biso   1.000  C  -0.522066
  C130     1.0000 0.10190  0.16470  0.93620  Biso   1.000  C  0.292629
  C131     1.0000 0.11800  0.11490  0.97260  Biso   1.000  C  -0.535356
  C132     1.0000 0.04050  0.14750  0.88520  Biso   1.000  C  -0.539345
  C133     1.0000 0.04890  0.20670  0.97210  Biso   1.000  C  -0.532941
  C134     1.0000 0.72550  0.52900  0.07150  Biso   1.000  C  0.646463
  C135     1.0000 0.79620  0.57718  0.06920  Biso   1.000  C  -0.016410
  C136     1.0000 0.88720  0.56544  0.05020  Biso   1.000  C  -0.129624
  C137     1.0000 0.95320  0.60867  0.04530  Biso   1.000  C  0.000385
  C138     1.0000 0.92820  0.66363  0.05930  Biso   1.000  C  -0.152922
  C139     1.0000 0.83720  0.67537  0.07830  Biso   1.000  C  0.082953
  C140     1.0000 0.77118  0.63214  0.08320  Biso   1.000  C  -0.140008
  C141     1.0000 0.05070  0.59610  0.02670  Biso   1.000  C  0.631851
  C142     1.0000 0.81190  0.73495  0.09460  Biso   1.000  C  0.046676
  C143     1.0000 0.86970  0.76841  0.12820  Biso   1.000  C  0.093420
  C144     1.0000 0.84370  0.82367  0.14030  Biso   1.000  C  -0.035074
  C145     1.0000 0.75980  0.84548  0.11880  Biso   1.000  C  0.229487
  C146     1.0000 0.70190  0.81202  0.08510  Biso   1.000  C  0.010210
  C147     1.0000 0.72800  0.75676  0.07300  Biso   1.000  C  -0.210186
  C148     1.0000 0.95730  0.74380  0.15760  Biso   1.000  C  -0.522066
  C149     1.0000 0.60190  0.83530  0.06380  Biso   1.000  C  0.292629
  C150     1.0000 0.61800  0.88510  0.02740  Biso   1.000  C  -0.535356
  C151     1.0000 0.54050  0.85250  0.11480  Biso   1.000  C  -0.539345
  C152     1.0000 0.54890  0.79330  0.02790  Biso   1.000  C  -0.532941
  Dy1      1.0000 0.00000  0.00000  0.59012  Biso   1.000  Dy  2.058159
  Dy2      1.0000 0.50000  0.00000  0.40988  Biso   1.000  Dy  2.058160
  Dy3      1.0000 0.75000  0.40988  0.00000  Biso   1.000  Dy  2.058159
  Dy4      1.0000 0.25000  0.59012  0.00000  Biso   1.000  Dy  2.058160
  H1       1.0000 0.84610  0.95920  0.47130  Biso   1.000  H  0.126468
  H2       1.0000 0.77770  0.94400  0.30740  Biso   1.000  H  0.131374
  H3       1.0000 0.03970  0.90410  0.36000  Biso   1.000  H  0.128323
  H4       1.0000 0.06080  0.94950  0.26560  Biso   1.000  H  0.126107
  H5       1.0000 0.78360  0.85430  0.29450  Biso   1.000  H  0.161212
  H6       1.0000 0.73800  0.85210  0.23420  Biso   1.000  H  0.175296
  H7       1.0000 0.80180  0.80220  0.25510  Biso   1.000  H  0.170401
  H8       1.0000 0.09840  0.95170  0.08660  Biso   1.000  H  0.155088
  H9       1.0000 0.09540  0.00500  0.12580  Biso   1.000  H  0.152716
  H10      1.0000 0.19180  0.98480  0.10000  Biso   1.000  H  0.165976
  H11      1.0000 0.21830  0.86090  0.17950  Biso   1.000  H  0.143538
  H12      1.0000 0.17860  0.86470  0.11790  Biso   1.000  H  0.159534
  H13      1.0000 0.27000  0.89820  0.13450  Biso   1.000  H  0.163235
  H14      1.0000 0.21300  0.95060  0.24030  Biso   1.000  H  0.137841
  H15      1.0000 0.26020  0.98390  0.19050  Biso   1.000  H  0.168281
  H16      1.0000 0.16390  0.00470  0.21600  Biso   1.000  H  0.145211
  H17      1.0000 0.34610  0.04080  0.52870  Biso   1.000  H  0.126468
  H18      1.0000 0.27770  0.05600  0.69260  Biso   1.000  H  0.131374
  H19      1.0000 0.53970  0.09590  0.64000  Biso   1.000  H  0.128323
  H20      1.0000 0.56080  0.05050  0.73440  Biso   1.000  H  0.126107
  H21      1.0000 0.28360  0.14570  0.70550  Biso   1.000  H  0.161212
  H22      1.0000 0.23800  0.14790  0.76580  Biso   1.000  H  0.175296
  H23      1.0000 0.30180  0.19780  0.74490  Biso   1.000  H  0.170401
  H24      1.0000 0.59840  0.04830  0.91340  Biso   1.000  H  0.155088
  H25      1.0000 0.59540  0.99500  0.87420  Biso   1.000  H  0.152716
  H26      1.0000 0.69180  0.01520  0.90000  Biso   1.000  H  0.165976
  H27      1.0000 0.71830  0.13910  0.82050  Biso   1.000  H  0.143538
  H28      1.0000 0.67860  0.13530  0.88210  Biso   1.000  H  0.159534
  H29      1.0000 0.77000  0.10180  0.86550  Biso   1.000  H  0.163235
  H30      1.0000 0.71300  0.04940  0.75970  Biso   1.000  H  0.137841
  H31      1.0000 0.76020  0.01610  0.80950  Biso   1.000  H  0.168281
  H32      1.0000 0.66390  0.99530  0.78400  Biso   1.000  H  0.145211
  H33      1.0000 0.59610  0.52870  0.95920  Biso   1.000  H  0.126468
  H34      1.0000 0.52770  0.69260  0.94400  Biso   1.000  H  0.131374
  H35      1.0000 0.78970  0.64000  0.90410  Biso   1.000  H  0.128323
  H36      1.0000 0.81080  0.73440  0.94950  Biso   1.000  H  0.126107
  H37      1.0000 0.53360  0.70550  0.85430  Biso   1.000  H  0.161212
  H38      1.0000 0.48800  0.76580  0.85210  Biso   1.000  H  0.175296
  H39      1.0000 0.55180  0.74490  0.80220  Biso   1.000  H  0.170401
  H40      1.0000 0.84840  0.91340  0.95170  Biso   1.000  H  0.155088
  H41      1.0000 0.84540  0.87420  0.00500  Biso   1.000  H  0.152716
  H42      1.0000 0.94180  0.90000  0.98480  Biso   1.000  H  0.165976
  H43      1.0000 0.96830  0.82050  0.86090  Biso   1.000  H  0.143538
  H44      1.0000 0.92860  0.88210  0.86470  Biso   1.000  H  0.159534
  H45      1.0000 0.02000  0.86550  0.89820  Biso   1.000  H  0.163235
  H46      1.0000 0.96300  0.75970  0.95060  Biso   1.000  H  0.137841
  H47      1.0000 0.01020  0.80950  0.98390  Biso   1.000  H  0.168281
  H48      1.0000 0.91390  0.78400  0.00470  Biso   1.000  H  0.145211
  H49      1.0000 0.09610  0.47130  0.04080  Biso   1.000  H  0.126468
  H50      1.0000 0.02770  0.30740  0.05600  Biso   1.000  H  0.131374
  H51      1.0000 0.28970  0.36000  0.09590  Biso   1.000  H  0.128323
  H52      1.0000 0.31080  0.26560  0.05050  Biso   1.000  H  0.126107
  H53      1.0000 0.03360  0.29450  0.14570  Biso   1.000  H  0.161212
  H54      1.0000 0.98800  0.23420  0.14790  Biso   1.000  H  0.175296
  H55      1.0000 0.05180  0.25510  0.19780  Biso   1.000  H  0.170401
  H56      1.0000 0.34840  0.08660  0.04830  Biso   1.000  H  0.155088
  H57      1.0000 0.34540  0.12580  0.99500  Biso   1.000  H  0.152716
  H58      1.0000 0.44180  0.10000  0.01520  Biso   1.000  H  0.165976
  H59      1.0000 0.46830  0.17950  0.13910  Biso   1.000  H  0.143538
  H60      1.0000 0.42860  0.11790  0.13530  Biso   1.000  H  0.159534
  H61      1.0000 0.52000  0.13450  0.10180  Biso   1.000  H  0.163235
  H62      1.0000 0.46300  0.24030  0.04940  Biso   1.000  H  0.137841
  H63      1.0000 0.51020  0.19050  0.01610  Biso   1.000  H  0.168281
  H64      1.0000 0.41390  0.21600  0.99530  Biso   1.000  H  0.145211
  H65      1.0000 0.15390  0.04080  0.47130  Biso   1.000  H  0.126468
  H66      1.0000 0.22230  0.05600  0.30740  Biso   1.000  H  0.131374
  H67      1.0000 0.96030  0.09590  0.36000  Biso   1.000  H  0.128323
  H68      1.0000 0.93920  0.05050  0.26560  Biso   1.000  H  0.126107
  H69      1.0000 0.21640  0.14570  0.29450  Biso   1.000  H  0.161212
  H70      1.0000 0.26200  0.14790  0.23420  Biso   1.000  H  0.175296
  H71      1.0000 0.19820  0.19780  0.25510  Biso   1.000  H  0.170400
  H72      1.0000 0.90160  0.04830  0.08660  Biso   1.000  H  0.155087
  H73      1.0000 0.90460  0.99500  0.12580  Biso   1.000  H  0.152716
  H74      1.0000 0.80820  0.01520  0.10000  Biso   1.000  H  0.165976
  H75      1.0000 0.78170  0.13910  0.17950  Biso   1.000  H  0.143538
  H76      1.0000 0.82140  0.13530  0.11790  Biso   1.000  H  0.159534
  H77      1.0000 0.73000  0.10180  0.13450  Biso   1.000  H  0.163235
  H78      1.0000 0.78700  0.04940  0.24030  Biso   1.000  H  0.137841
  H79      1.0000 0.73980  0.01610  0.19050  Biso   1.000  H  0.168281
  H80      1.0000 0.83610  0.99530  0.21600  Biso   1.000  H  0.145211
  H81      1.0000 0.65390  0.95920  0.52870  Biso   1.000  H  0.126468
  H82      1.0000 0.72230  0.94400  0.69260  Biso   1.000  H  0.131374
  H83      1.0000 0.46030  0.90410  0.64000  Biso   1.000  H  0.128323
  H84      1.0000 0.43920  0.94950  0.73440  Biso   1.000  H  0.126107
  H85      1.0000 0.71640  0.85430  0.70550  Biso   1.000  H  0.161212
  H86      1.0000 0.76200  0.85210  0.76580  Biso   1.000  H  0.175296
  H87      1.0000 0.69820  0.80220  0.74490  Biso   1.000  H  0.170400
  H88      1.0000 0.40160  0.95170  0.91340  Biso   1.000  H  0.155088
  H89      1.0000 0.40460  0.00500  0.87420  Biso   1.000  H  0.152716
  H90      1.0000 0.30820  0.98480  0.90000  Biso   1.000  H  0.165976
  H91      1.0000 0.28170  0.86090  0.82050  Biso   1.000  H  0.143538
  H92      1.0000 0.32140  0.86470  0.88210  Biso   1.000  H  0.159534
  H93      1.0000 0.23000  0.89820  0.86550  Biso   1.000  H  0.163235
  H94      1.0000 0.28700  0.95060  0.75970  Biso   1.000  H  0.137841
  H95      1.0000 0.23980  0.98390  0.80950  Biso   1.000  H  0.168281
  H96      1.0000 0.33610  0.00470  0.78400  Biso   1.000  H  0.145211
  H97      1.0000 0.40390  0.47130  0.95920  Biso   1.000  H  0.126468
  H98      1.0000 0.47230  0.30740  0.94400  Biso   1.000  H  0.131374
  H99      1.0000 0.21030  0.36000  0.90410  Biso   1.000  H  0.128323
  H100     1.0000 0.18920  0.26560  0.94950  Biso   1.000  H  0.126107
  H101     1.0000 0.46640  0.29450  0.85430  Biso   1.000  H  0.161212
  H102     1.0000 0.51200  0.23420  0.85210  Biso   1.000  H  0.175296
  H103     1.0000 0.44820  0.25510  0.80220  Biso   1.000  H  0.170400
  H104     1.0000 0.15160  0.08660  0.95170  Biso   1.000  H  0.155087
  H105     1.0000 0.15460  0.12580  0.00500  Biso   1.000  H  0.152716
  H106     1.0000 0.05820  0.10000  0.98480  Biso   1.000  H  0.165976
  H107     1.0000 0.03170  0.17950  0.86090  Biso   1.000  H  0.143538
  H108     1.0000 0.07140  0.11790  0.86470  Biso   1.000  H  0.159534
  H109     1.0000 0.98000  0.13450  0.89820  Biso   1.000  H  0.163235
  H110     1.0000 0.03700  0.24030  0.95060  Biso   1.000  H  0.137841
  H111     1.0000 0.98980  0.19050  0.98390  Biso   1.000  H  0.168281
  H112     1.0000 0.08610  0.21600  0.00470  Biso   1.000  H  0.145211
  H113     1.0000 0.90390  0.52870  0.04080  Biso   1.000  H  0.126468
  H114     1.0000 0.97230  0.69260  0.05600  Biso   1.000  H  0.131374
  H115     1.0000 0.71030  0.64000  0.09590  Biso   1.000  H  0.128323
  H116     1.0000 0.68920  0.73440  0.05050  Biso   1.000  H  0.126107
  H117     1.0000 0.96640  0.70550  0.14570  Biso   1.000  H  0.161212
  H118     1.0000 0.01200  0.76580  0.14790  Biso   1.000  H  0.175296
  H119     1.0000 0.94820  0.74490  0.19780  Biso   1.000  H  0.170400
  H120     1.0000 0.65160  0.91340  0.04830  Biso   1.000  H  0.155087
  H121     1.0000 0.65460  0.87420  0.99500  Biso   1.000  H  0.152716
  H122     1.0000 0.55820  0.90000  0.01520  Biso   1.000  H  0.165976
  H123     1.0000 0.53170  0.82050  0.13910  Biso   1.000  H  0.143538
  H124     1.0000 0.57140  0.88210  0.13530  Biso   1.000  H  0.159534
  H125     1.0000 0.48000  0.86550  0.10180  Biso   1.000  H  0.163235
  H126     1.0000 0.53700  0.75970  0.04940  Biso   1.000  H  0.137841
  H127     1.0000 0.48980  0.80950  0.01610  Biso   1.000  H  0.168281
  H128     1.0000 0.58610  0.78400  0.99530  Biso   1.000  H  0.145211
  Na1      1.0000 0.25000  0.91899  0.50000  Biso   1.000  Na  0.877245
  Na2      1.0000 0.75000  0.08101  0.50000  Biso   1.000  Na  0.877245
  Na3      1.0000 0.00000  0.50000  0.91899  Biso   1.000  Na  0.877245
  Na4      1.0000 0.50000  0.50000  0.08101  Biso   1.000  Na  0.877245
  O1       1.0000 0.99600  0.93670  0.51960  Biso   1.000  O  -0.703532
  O2       1.0000 0.10830  0.91190  0.45620  Biso   1.000  O  -0.653969
  O3       1.0000 0.68080  0.00760  0.44235  Biso   1.000  O  -0.676682
  O4       1.0000 0.63270  0.95450  0.37320  Biso   1.000  O  -0.707856
  O5       1.0000 0.01370  0.86970  0.09960  Biso   1.000  O  -0.356404
  O6       1.0000 0.49600  0.06330  0.48040  Biso   1.000  O  -0.703532
  O7       1.0000 0.60830  0.08810  0.54380  Biso   1.000  O  -0.653969
  O8       1.0000 0.18080  0.99240  0.55765  Biso   1.000  O  -0.676682
  O9       1.0000 0.13270  0.04550  0.62680  Biso   1.000  O  -0.707856
  O10      1.0000 0.51370  0.13030  0.90040  Biso   1.000  O  -0.356404
  O11      1.0000 0.74600  0.48040  0.93670  Biso   1.000  O  -0.703532
  O12      1.0000 0.85830  0.54380  0.91190  Biso   1.000  O  -0.653969
  O13      1.0000 0.43080  0.55765  0.00760  Biso   1.000  O  -0.676682
  O14      1.0000 0.38270  0.62680  0.95450  Biso   1.000  O  -0.707856
  O15      1.0000 0.76370  0.90040  0.86970  Biso   1.000  O  -0.356404
  O16      1.0000 0.24600  0.51960  0.06330  Biso   1.000  O  -0.703532
  O17      1.0000 0.35830  0.45620  0.08810  Biso   1.000  O  -0.653969
  O18      1.0000 0.93080  0.44235  0.99240  Biso   1.000  O  -0.676682
  O19      1.0000 0.88270  0.37320  0.04550  Biso   1.000  O  -0.707856
  O20      1.0000 0.26370  0.09960  0.13030  Biso   1.000  O  -0.356404
  O21      1.0000 0.00400  0.06330  0.51960  Biso   1.000  O  -0.703532
  O22      1.0000 0.89170  0.08810  0.45620  Biso   1.000  O  -0.653969
  O23      1.0000 0.31920  0.99240  0.44235  Biso   1.000  O  -0.676682
  O24      1.0000 0.36730  0.04550  0.37320  Biso   1.000  O  -0.707856
  O25      1.0000 0.98630  0.13030  0.09960  Biso   1.000  O  -0.356404
  O26      1.0000 0.50400  0.93670  0.48040  Biso   1.000  O  -0.703532
  O27      1.0000 0.39170  0.91190  0.54380  Biso   1.000  O  -0.653969
  O28      1.0000 0.81920  0.00760  0.55765  Biso   1.000  O  -0.676682
  O29      1.0000 0.86730  0.95450  0.62680  Biso   1.000  O  -0.707856
  O30      1.0000 0.48630  0.86970  0.90040  Biso   1.000  O  -0.356404
  O31      1.0000 0.25400  0.51960  0.93670  Biso   1.000  O  -0.703532
  O32      1.0000 0.14170  0.45620  0.91190  Biso   1.000  O  -0.653969
  O33      1.0000 0.56920  0.44235  0.00760  Biso   1.000  O  -0.676682
  O34      1.0000 0.61730  0.37320  0.95450  Biso   1.000  O  -0.707856
  O35      1.0000 0.23630  0.09960  0.86970  Biso   1.000  O  -0.356404
  O36      1.0000 0.75400  0.48040  0.06330  Biso   1.000  O  -0.703532
  O37      1.0000 0.64170  0.54380  0.08810  Biso   1.000  O  -0.653969
  O38      1.0000 0.06920  0.55765  0.99240  Biso   1.000  O  -0.676682
  O39      1.0000 0.11730  0.62680  0.04550  Biso   1.000  O  -0.707856
  O40      1.0000 0.73630  0.90040  0.13030  Biso   1.000  O  -0.356404
