data_image0
_cell_length_a       39.2929
_cell_length_b       39.2929
_cell_length_c       39.2929
_cell_angle_alpha    60
_cell_angle_beta     60
_cell_angle_gamma    60

_symmetry_space_group_name_H-M    "P 1"
_symmetry_int_tables_number       1

loop_
  _symmetry_equiv_pos_as_xyz
  'x, y, z'

loop_
  _atom_site_label
  _atom_site_occupancy
  _atom_site_fract_x
  _atom_site_fract_y
  _atom_site_fract_z
  _atom_site_thermal_displace_type
  _atom_site_B_iso_or_equiv
  _atom_site_type_symbol
  _atom_site_charge
  C1       1.0000 0.91882  0.79680  0.73494  Biso   1.000  C  -0.095944
  C2       1.0000 0.82794  0.01650  0.01650  Biso   1.000  C  0.005816
  C3       1.0000 0.97139  0.83899  0.21823  Biso   1.000  C  -0.048336
  C4       1.0000 0.82794  0.13906  0.01650  Biso   1.000  C  0.005817
  C5       1.0000 0.94676  0.94676  0.84862  Biso   1.000  C  0.613973
  C6       1.0000 0.71267  0.92429  0.58853  Biso   1.000  C  -0.112865
  C7       1.0000 0.91540  0.52968  0.77746  Biso   1.000  C  -0.051978
  C8       1.0000 0.97434  0.03618  0.15938  Biso   1.000  C  -0.110153
  C9       1.0000 0.70965  0.92899  0.65171  Biso   1.000  C  0.404003
  C10      1.0000 0.73235  0.60885  0.92645  Biso   1.000  C  0.013138
  C11      1.0000 0.54944  0.73494  0.91882  Biso   1.000  C  -0.095952
  C12      1.0000 0.83557  0.95205  0.01391  Biso   1.000  C  -0.098681
  C13      1.0000 0.49005  0.80209  0.80209  Biso   1.000  C  0.638490
  C14      1.0000 0.97434  0.03618  0.83010  Biso   1.000  C  -0.110160
  C15      1.0000 0.79680  0.54944  0.73494  Biso   1.000  C  -0.095954
  C16      1.0000 0.01391  0.83557  0.19847  Biso   1.000  C  -0.098692
  C17      1.0000 0.82540  0.03920  0.09620  Biso   1.000  C  0.417303
  C18      1.0000 0.19847  0.01391  0.83557  Biso   1.000  C  -0.098692
  C19      1.0000 0.77746  0.77746  0.91540  Biso   1.000  C  -0.051985
  C20      1.0000 0.58853  0.92429  0.77451  Biso   1.000  C  -0.112864
  C21      1.0000 0.01391  0.19847  0.83557  Biso   1.000  C  -0.098692
  C22      1.0000 0.97139  0.21823  0.83899  Biso   1.000  C  -0.048336
  C23      1.0000 0.19847  0.95205  0.83557  Biso   1.000  C  -0.098681
  C24      1.0000 0.92429  0.71267  0.58853  Biso   1.000  C  -0.112865
  C25      1.0000 0.97139  0.83899  0.97139  Biso   1.000  C  -0.048337
  C26      1.0000 0.91882  0.73494  0.54944  Biso   1.000  C  -0.095952
  C27      1.0000 0.71267  0.77451  0.92429  Biso   1.000  C  -0.112864
  C28      1.0000 0.15938  0.97434  0.83010  Biso   1.000  C  -0.110160
  C29      1.0000 0.71267  0.77451  0.58853  Biso   1.000  C  -0.112859
  C30      1.0000 0.73235  0.73235  0.92645  Biso   1.000  C  0.013135
  C31      1.0000 0.82794  0.01650  0.13906  Biso   1.000  C  0.005816
  C32      1.0000 0.19847  0.83557  0.01391  Biso   1.000  C  -0.098692
  C33      1.0000 0.73494  0.79680  0.54944  Biso   1.000  C  -0.095954
  C34      1.0000 0.95205  0.83557  0.19847  Biso   1.000  C  -0.098681
  C35      1.0000 0.03920  0.09620  0.82540  Biso   1.000  C  0.417303
  C36      1.0000 0.65171  0.70965  0.70965  Biso   1.000  C  0.404018
  C37      1.0000 0.03618  0.83010  0.15938  Biso   1.000  C  -0.110159
  C38      1.0000 0.97434  0.83010  0.15938  Biso   1.000  C  -0.110160
  C39      1.0000 0.80209  0.80209  0.49005  Biso   1.000  C  0.638490
  C40      1.0000 0.73494  0.91882  0.79680  Biso   1.000  C  -0.095943
  C41      1.0000 0.91882  0.73494  0.79680  Biso   1.000  C  -0.095944
  C42      1.0000 0.90577  0.80209  0.49005  Biso   1.000  C  0.638482
  C43      1.0000 0.73494  0.54944  0.79680  Biso   1.000  C  -0.095954
  C44      1.0000 0.25786  0.94676  0.94676  Biso   1.000  C  0.613977
  C45      1.0000 0.58853  0.77451  0.71267  Biso   1.000  C  -0.112859
  C46      1.0000 0.82540  0.09620  0.03920  Biso   1.000  C  0.417299
  C47      1.0000 0.83010  0.15938  0.97434  Biso   1.000  C  -0.110160
  C48      1.0000 0.13906  0.01650  0.01650  Biso   1.000  C  0.005815
  C49      1.0000 0.21823  0.97139  0.83899  Biso   1.000  C  -0.048336
  C50      1.0000 0.54944  0.79680  0.91882  Biso   1.000  C  -0.095945
  C51      1.0000 0.15938  0.83010  0.03618  Biso   1.000  C  -0.110160
  C52      1.0000 0.77451  0.58853  0.92429  Biso   1.000  C  -0.112865
  C53      1.0000 0.97434  0.15938  0.83010  Biso   1.000  C  -0.110160
  C54      1.0000 0.03618  0.15938  0.97434  Biso   1.000  C  -0.110153
  C55      1.0000 0.60885  0.73235  0.92645  Biso   1.000  C  0.013138
  C56      1.0000 0.52968  0.77746  0.91540  Biso   1.000  C  -0.051979
  C57      1.0000 0.97434  0.15938  0.03618  Biso   1.000  C  -0.110153
  C58      1.0000 0.52968  0.91540  0.77746  Biso   1.000  C  -0.051979
  C59      1.0000 0.92429  0.58853  0.77451  Biso   1.000  C  -0.112863
  C60      1.0000 0.01650  0.13906  0.01650  Biso   1.000  C  0.005810
  C61      1.0000 0.82540  0.03920  0.03920  Biso   1.000  C  0.417306
  C62      1.0000 0.95205  0.01391  0.19847  Biso   1.000  C  -0.098688
  C63      1.0000 0.21823  0.97139  0.97139  Biso   1.000  C  -0.048337
  C64      1.0000 0.79680  0.73494  0.91882  Biso   1.000  C  -0.095944
  C65      1.0000 0.49005  0.80209  0.90577  Biso   1.000  C  0.638483
  C66      1.0000 0.80209  0.90577  0.49005  Biso   1.000  C  0.638482
  C67      1.0000 0.83557  0.01391  0.95205  Biso   1.000  C  -0.098682
  C68      1.0000 0.58853  0.92429  0.71267  Biso   1.000  C  -0.112865
  C69      1.0000 0.54944  0.91882  0.79680  Biso   1.000  C  -0.095944
  C70      1.0000 0.83557  0.01391  0.19847  Biso   1.000  C  -0.098691
  C71      1.0000 0.92645  0.60885  0.73235  Biso   1.000  C  0.013138
  C72      1.0000 0.83899  0.97139  0.21823  Biso   1.000  C  -0.048336
  C73      1.0000 0.77451  0.71267  0.92429  Biso   1.000  C  -0.112866
  C74      1.0000 0.15938  0.03618  0.83010  Biso   1.000  C  -0.110160
  C75      1.0000 0.94676  0.84862  0.25786  Biso   1.000  C  0.613976
  C76      1.0000 0.80209  0.49005  0.80209  Biso   1.000  C  0.638490
  C77      1.0000 0.80209  0.80209  0.90577  Biso   1.000  C  0.638486
  C78      1.0000 0.03618  0.83010  0.97434  Biso   1.000  C  -0.110160
  C79      1.0000 0.79680  0.91882  0.54944  Biso   1.000  C  -0.095945
  C80      1.0000 0.54944  0.91882  0.73494  Biso   1.000  C  -0.095952
  C81      1.0000 0.83899  0.97139  0.97139  Biso   1.000  C  -0.048339
  C82      1.0000 0.01650  0.01650  0.13906  Biso   1.000  C  0.005812
  C83      1.0000 0.83010  0.03618  0.15938  Biso   1.000  C  -0.110162
  C84      1.0000 0.73235  0.92645  0.73235  Biso   1.000  C  0.013137
  C85      1.0000 0.79680  0.54944  0.91882  Biso   1.000  C  -0.095944
  C86      1.0000 0.01391  0.83557  0.95205  Biso   1.000  C  -0.098683
  C87      1.0000 0.65171  0.70965  0.92899  Biso   1.000  C  0.404002
  C88      1.0000 0.92429  0.58853  0.71267  Biso   1.000  C  -0.112865
  C89      1.0000 0.70965  0.65171  0.70965  Biso   1.000  C  0.404015
  C90      1.0000 0.79680  0.91882  0.73494  Biso   1.000  C  -0.095943
  C91      1.0000 0.71267  0.58853  0.77451  Biso   1.000  C  -0.112859
  C92      1.0000 0.97139  0.97139  0.21823  Biso   1.000  C  -0.048338
  C93      1.0000 0.60885  0.73235  0.73235  Biso   1.000  C  0.013129
  C94      1.0000 0.01650  0.82794  0.01650  Biso   1.000  C  0.005814
  C95      1.0000 0.77746  0.52968  0.77746  Biso   1.000  C  -0.051980
  C96      1.0000 0.01650  0.01650  0.82794  Biso   1.000  C  0.005814
  C97      1.0000 0.70965  0.65171  0.92899  Biso   1.000  C  0.404000
  C98      1.0000 0.83010  0.97434  0.03618  Biso   1.000  C  -0.110163
  C99      1.0000 0.09620  0.03920  0.82540  Biso   1.000  C  0.417301
  C100     1.0000 0.84862  0.94676  0.94676  Biso   1.000  C  0.613973
  C101     1.0000 0.77451  0.58853  0.71267  Biso   1.000  C  -0.112860
  C102     1.0000 0.90577  0.49005  0.80209  Biso   1.000  C  0.638482
  C103     1.0000 0.13906  0.01650  0.82794  Biso   1.000  C  0.005815
  C104     1.0000 0.77451  0.92429  0.71267  Biso   1.000  C  -0.112867
  C105     1.0000 0.19847  0.01391  0.95205  Biso   1.000  C  -0.098688
  C106     1.0000 0.92899  0.70965  0.65171  Biso   1.000  C  0.404002
  C107     1.0000 0.84862  0.94676  0.25786  Biso   1.000  C  0.613976
  C108     1.0000 0.65171  0.92899  0.70965  Biso   1.000  C  0.404001
  C109     1.0000 0.91540  0.77746  0.77746  Biso   1.000  C  -0.051986
  C110     1.0000 0.80209  0.90577  0.80209  Biso   1.000  C  0.638486
  C111     1.0000 0.73235  0.92645  0.60885  Biso   1.000  C  0.013137
  C112     1.0000 0.58853  0.71267  0.92429  Biso   1.000  C  -0.112866
  C113     1.0000 0.01391  0.95205  0.19847  Biso   1.000  C  -0.098688
  C114     1.0000 0.01650  0.13906  0.82794  Biso   1.000  C  0.005815
  C115     1.0000 0.03920  0.03920  0.82540  Biso   1.000  C  0.417305
  C116     1.0000 0.25786  0.84862  0.94676  Biso   1.000  C  0.613976
  C117     1.0000 0.77451  0.92429  0.58853  Biso   1.000  C  -0.112864
  C118     1.0000 0.92899  0.70965  0.70965  Biso   1.000  C  0.404007
  C119     1.0000 0.83557  0.95205  0.19847  Biso   1.000  C  -0.098681
  C120     1.0000 0.01391  0.19847  0.95205  Biso   1.000  C  -0.098689
  C121     1.0000 0.73494  0.91882  0.54944  Biso   1.000  C  -0.095952
  C122     1.0000 0.92899  0.65171  0.70965  Biso   1.000  C  0.403999
  C123     1.0000 0.49005  0.90577  0.80209  Biso   1.000  C  0.638483
  C124     1.0000 0.83557  0.19847  0.95205  Biso   1.000  C  -0.098682
  C125     1.0000 0.60885  0.92645  0.73235  Biso   1.000  C  0.013137
  C126     1.0000 0.03618  0.15938  0.83010  Biso   1.000  C  -0.110161
  C127     1.0000 0.19847  0.83557  0.95205  Biso   1.000  C  -0.098682
  C128     1.0000 0.83899  0.21823  0.97139  Biso   1.000  C  -0.048336
  C129     1.0000 0.94676  0.84862  0.94676  Biso   1.000  C  0.613973
  C130     1.0000 0.92645  0.73235  0.60885  Biso   1.000  C  0.013137
  C131     1.0000 0.09620  0.03920  0.03920  Biso   1.000  C  0.417316
  C132     1.0000 0.95205  0.83557  0.01391  Biso   1.000  C  -0.098683
  C133     1.0000 0.77451  0.71267  0.58853  Biso   1.000  C  -0.112859
  C134     1.0000 0.03618  0.97434  0.15938  Biso   1.000  C  -0.110156
  C135     1.0000 0.03920  0.82540  0.09620  Biso   1.000  C  0.417302
  C136     1.0000 0.15938  0.97434  0.03618  Biso   1.000  C  -0.110157
  C137     1.0000 0.80209  0.49005  0.90577  Biso   1.000  C  0.638482
  C138     1.0000 0.71267  0.92429  0.77451  Biso   1.000  C  -0.112866
  C139     1.0000 0.91882  0.79680  0.54944  Biso   1.000  C  -0.095944
  C140     1.0000 0.70965  0.92899  0.70965  Biso   1.000  C  0.404004
  C141     1.0000 0.95205  0.19847  0.83557  Biso   1.000  C  -0.098682
  C142     1.0000 0.97434  0.83010  0.03618  Biso   1.000  C  -0.110161
  C143     1.0000 0.97139  0.21823  0.97139  Biso   1.000  C  -0.048338
  C144     1.0000 0.54944  0.73494  0.79680  Biso   1.000  C  -0.095954
  C145     1.0000 0.90577  0.80209  0.80209  Biso   1.000  C  0.638486
  C146     1.0000 0.92429  0.71267  0.77451  Biso   1.000  C  -0.112865
  C147     1.0000 0.94676  0.94676  0.25786  Biso   1.000  C  0.613977
  C148     1.0000 0.13906  0.82794  0.01650  Biso   1.000  C  0.005816
  C149     1.0000 0.95205  0.01391  0.83557  Biso   1.000  C  -0.098682
  C150     1.0000 0.25786  0.94676  0.84862  Biso   1.000  C  0.613976
  C151     1.0000 0.77746  0.52968  0.91540  Biso   1.000  C  -0.051979
  C152     1.0000 0.92645  0.73235  0.73235  Biso   1.000  C  0.013134
  C153     1.0000 0.09620  0.82540  0.03920  Biso   1.000  C  0.417299
  C154     1.0000 0.92429  0.77451  0.71267  Biso   1.000  C  -0.112867
  C155     1.0000 0.94676  0.25786  0.84862  Biso   1.000  C  0.613976
  C156     1.0000 0.73494  0.54944  0.91882  Biso   1.000  C  -0.095952
  C157     1.0000 0.77746  0.91540  0.77746  Biso   1.000  C  -0.051986
  C158     1.0000 0.79680  0.73494  0.54944  Biso   1.000  C  -0.095954
  C159     1.0000 0.91882  0.54944  0.79680  Biso   1.000  C  -0.095945
  C160     1.0000 0.15938  0.03618  0.97434  Biso   1.000  C  -0.110158
  C161     1.0000 0.83010  0.97434  0.15938  Biso   1.000  C  -0.110160
  C162     1.0000 0.84862  0.25786  0.94676  Biso   1.000  C  0.613976
  C163     1.0000 0.91882  0.54944  0.73494  Biso   1.000  C  -0.095952
  C164     1.0000 0.73494  0.79680  0.91882  Biso   1.000  C  -0.095945
  C165     1.0000 0.94676  0.25786  0.94676  Biso   1.000  C  0.613977
  C166     1.0000 0.58853  0.77451  0.92429  Biso   1.000  C  -0.112864
  C167     1.0000 0.97139  0.97139  0.83899  Biso   1.000  C  -0.048338
  C168     1.0000 0.73235  0.60885  0.73235  Biso   1.000  C  0.013127
  C169     1.0000 0.52968  0.77746  0.77746  Biso   1.000  C  -0.051980
  C170     1.0000 0.03920  0.82540  0.03920  Biso   1.000  C  0.417305
  C171     1.0000 0.91540  0.77746  0.52968  Biso   1.000  C  -0.051979
  C172     1.0000 0.01650  0.82794  0.13906  Biso   1.000  C  0.005815
  C173     1.0000 0.15938  0.83010  0.97434  Biso   1.000  C  -0.110160
  C174     1.0000 0.92429  0.77451  0.58853  Biso   1.000  C  -0.112864
  C175     1.0000 0.83010  0.15938  0.03618  Biso   1.000  C  -0.110161
  C176     1.0000 0.21823  0.83899  0.97139  Biso   1.000  C  -0.048336
  C177     1.0000 0.19847  0.95205  0.01391  Biso   1.000  C  -0.098688
  C178     1.0000 0.03920  0.03920  0.09620  Biso   1.000  C  0.417313
  C179     1.0000 0.03618  0.97434  0.83010  Biso   1.000  C  -0.110162
  C180     1.0000 0.95205  0.19847  0.01391  Biso   1.000  C  -0.098689
  C181     1.0000 0.70965  0.70965  0.65171  Biso   1.000  C  0.404012
  C182     1.0000 0.71267  0.58853  0.92429  Biso   1.000  C  -0.112866
  C183     1.0000 0.83010  0.03618  0.97434  Biso   1.000  C  -0.110163
  C184     1.0000 0.83557  0.19847  0.01391  Biso   1.000  C  -0.098692
  C185     1.0000 0.58853  0.71267  0.77451  Biso   1.000  C  -0.112861
  C186     1.0000 0.77746  0.77746  0.52968  Biso   1.000  C  -0.051980
  C187     1.0000 0.01391  0.95205  0.83557  Biso   1.000  C  -0.098682
  C188     1.0000 0.03920  0.09620  0.03920  Biso   1.000  C  0.417311
  C189     1.0000 0.54944  0.79680  0.73494  Biso   1.000  C  -0.095955
  C190     1.0000 0.73235  0.73235  0.60885  Biso   1.000  C  0.013127
  C191     1.0000 0.77746  0.91540  0.52968  Biso   1.000  C  -0.051979
  C192     1.0000 0.70965  0.70965  0.92899  Biso   1.000  C  0.404004
  H1       1.0000 0.60317  0.68021  0.92595  Biso   1.000  H  0.102818
  H2       1.0000 0.95818  0.82844  0.14474  Biso   1.000  H  0.100408
  H3       1.0000 0.53518  0.82948  0.91632  Biso   1.000  H  0.103483
  H4       1.0000 0.02983  0.21273  0.91937  Biso   1.000  H  0.101992
  H5       1.0000 0.68021  0.79067  0.60317  Biso   1.000  H  0.102816
  H6       1.0000 0.82844  0.95818  0.06864  Biso   1.000  H  0.100410
  H7       1.0000 0.83807  0.21273  0.02983  Biso   1.000  H  0.102000
  H8       1.0000 0.21273  0.83807  0.02983  Biso   1.000  H  0.102001
  H9       1.0000 0.91632  0.71902  0.82948  Biso   1.000  H  0.103490
  H10      1.0000 0.71902  0.53518  0.91632  Biso   1.000  H  0.103495
  H11      1.0000 0.71902  0.53518  0.82948  Biso   1.000  H  0.103487
  H12      1.0000 0.82948  0.91632  0.53518  Biso   1.000  H  0.103483
  H13      1.0000 0.14474  0.06864  0.82844  Biso   1.000  H  0.100415
  H14      1.0000 0.82844  0.06864  0.95818  Biso   1.000  H  0.100410
  H15      1.0000 0.21273  0.02983  0.83807  Biso   1.000  H  0.102000
  H16      1.0000 0.92595  0.68021  0.79067  Biso   1.000  H  0.102811
  H17      1.0000 0.92595  0.79067  0.68021  Biso   1.000  H  0.102812
  H18      1.0000 0.91937  0.83807  0.02983  Biso   1.000  H  0.101994
  H19      1.0000 0.95818  0.06864  0.14474  Biso   1.000  H  0.100413
  H20      1.0000 0.14474  0.82844  0.06864  Biso   1.000  H  0.100415
  H21      1.0000 0.91632  0.53518  0.71902  Biso   1.000  H  0.103495
  H22      1.0000 0.91632  0.71902  0.53518  Biso   1.000  H  0.103495
  H23      1.0000 0.91632  0.82948  0.71902  Biso   1.000  H  0.103488
  H24      1.0000 0.68021  0.60317  0.79067  Biso   1.000  H  0.102815
  H25      1.0000 0.21273  0.91937  0.02983  Biso   1.000  H  0.101992
  H26      1.0000 0.91632  0.53518  0.82948  Biso   1.000  H  0.103483
  H27      1.0000 0.53518  0.71902  0.91632  Biso   1.000  H  0.103495
  H28      1.0000 0.06864  0.95818  0.82844  Biso   1.000  H  0.100410
  H29      1.0000 0.92595  0.68021  0.60317  Biso   1.000  H  0.102817
  H30      1.0000 0.68021  0.79067  0.92595  Biso   1.000  H  0.102812
  H31      1.0000 0.60317  0.92595  0.79067  Biso   1.000  H  0.102811
  H32      1.0000 0.14474  0.95818  0.82844  Biso   1.000  H  0.100406
  H33      1.0000 0.14474  0.95818  0.06864  Biso   1.000  H  0.100412
  H34      1.0000 0.02983  0.83807  0.91937  Biso   1.000  H  0.101994
  H35      1.0000 0.91937  0.02983  0.21273  Biso   1.000  H  0.101992
  H36      1.0000 0.71902  0.82948  0.91632  Biso   1.000  H  0.103488
  H37      1.0000 0.83807  0.21273  0.91937  Biso   1.000  H  0.101989
  H38      1.0000 0.95818  0.14474  0.06864  Biso   1.000  H  0.100411
  H39      1.0000 0.83807  0.02983  0.91937  Biso   1.000  H  0.101993
  H40      1.0000 0.53518  0.91632  0.71902  Biso   1.000  H  0.103495
  H41      1.0000 0.83807  0.91937  0.02983  Biso   1.000  H  0.101992
  H42      1.0000 0.53518  0.71902  0.82948  Biso   1.000  H  0.103487
  H43      1.0000 0.68021  0.92595  0.60317  Biso   1.000  H  0.102817
  H44      1.0000 0.91937  0.21273  0.83807  Biso   1.000  H  0.101987
  H45      1.0000 0.79067  0.60317  0.92595  Biso   1.000  H  0.102811
  H46      1.0000 0.79067  0.92595  0.68021  Biso   1.000  H  0.102811
  H47      1.0000 0.95818  0.14474  0.82844  Biso   1.000  H  0.100407
  H48      1.0000 0.92595  0.60317  0.68021  Biso   1.000  H  0.102816
  H49      1.0000 0.53518  0.91632  0.82948  Biso   1.000  H  0.103480
  H50      1.0000 0.71902  0.91632  0.53518  Biso   1.000  H  0.103495
  H51      1.0000 0.82948  0.53518  0.71902  Biso   1.000  H  0.103487
  H52      1.0000 0.21273  0.83807  0.91937  Biso   1.000  H  0.101989
  H53      1.0000 0.91632  0.82948  0.53518  Biso   1.000  H  0.103481
  H54      1.0000 0.95818  0.82844  0.06864  Biso   1.000  H  0.100406
  H55      1.0000 0.68021  0.92595  0.79067  Biso   1.000  H  0.102809
  H56      1.0000 0.60317  0.92595  0.68021  Biso   1.000  H  0.102816
  H57      1.0000 0.82948  0.91632  0.71902  Biso   1.000  H  0.103487
  H58      1.0000 0.92595  0.79067  0.60317  Biso   1.000  H  0.102807
  H59      1.0000 0.95818  0.06864  0.82844  Biso   1.000  H  0.100407
  H60      1.0000 0.02983  0.91937  0.21273  Biso   1.000  H  0.101992
  H61      1.0000 0.82844  0.06864  0.14474  Biso   1.000  H  0.100415
  H62      1.0000 0.79067  0.60317  0.68021  Biso   1.000  H  0.102815
  H63      1.0000 0.82844  0.95818  0.14474  Biso   1.000  H  0.100406
  H64      1.0000 0.06864  0.82844  0.95818  Biso   1.000  H  0.100408
  H65      1.0000 0.79067  0.92595  0.60317  Biso   1.000  H  0.102807
  H66      1.0000 0.83807  0.02983  0.21273  Biso   1.000  H  0.101999
  H67      1.0000 0.71902  0.91632  0.82948  Biso   1.000  H  0.103487
  H68      1.0000 0.79067  0.68021  0.60317  Biso   1.000  H  0.102815
  H69      1.0000 0.91937  0.83807  0.21273  Biso   1.000  H  0.101988
  H70      1.0000 0.14474  0.06864  0.95818  Biso   1.000  H  0.100413
  H71      1.0000 0.91937  0.21273  0.02983  Biso   1.000  H  0.101991
  H72      1.0000 0.02983  0.83807  0.21273  Biso   1.000  H  0.102000
  H73      1.0000 0.02983  0.91937  0.83807  Biso   1.000  H  0.101992
  H74      1.0000 0.60317  0.79067  0.68021  Biso   1.000  H  0.102815
  H75      1.0000 0.92595  0.60317  0.79067  Biso   1.000  H  0.102807
  H76      1.0000 0.91937  0.02983  0.83807  Biso   1.000  H  0.101992
  H77      1.0000 0.21273  0.91937  0.83807  Biso   1.000  H  0.101986
  H78      1.0000 0.06864  0.14474  0.82844  Biso   1.000  H  0.100414
  H79      1.0000 0.06864  0.82844  0.14474  Biso   1.000  H  0.100414
  H80      1.0000 0.82948  0.71902  0.53518  Biso   1.000  H  0.103487
  H81      1.0000 0.79067  0.68021  0.92595  Biso   1.000  H  0.102809
  H82      1.0000 0.06864  0.95818  0.14474  Biso   1.000  H  0.100411
  H83      1.0000 0.71902  0.82948  0.53518  Biso   1.000  H  0.103487
  H84      1.0000 0.53518  0.82948  0.71902  Biso   1.000  H  0.103487
  H85      1.0000 0.82948  0.53518  0.91632  Biso   1.000  H  0.103480
  H86      1.0000 0.83807  0.91937  0.21273  Biso   1.000  H  0.101986
  H87      1.0000 0.68021  0.60317  0.92595  Biso   1.000  H  0.102815
  H88      1.0000 0.06864  0.14474  0.95818  Biso   1.000  H  0.100411
  H89      1.0000 0.60317  0.79067  0.92595  Biso   1.000  H  0.102807
  H90      1.0000 0.82844  0.14474  0.06864  Biso   1.000  H  0.100414
  H91      1.0000 0.82948  0.71902  0.91632  Biso   1.000  H  0.103487
  H92      1.0000 0.14474  0.82844  0.95818  Biso   1.000  H  0.100405
  H93      1.0000 0.60317  0.68021  0.79067  Biso   1.000  H  0.102814
  H94      1.0000 0.02983  0.21273  0.83807  Biso   1.000  H  0.102000
  H95      1.0000 0.21273  0.02983  0.91937  Biso   1.000  H  0.101991
  H96      1.0000 0.82844  0.14474  0.95818  Biso   1.000  H  0.100405
  N1       1.0000 0.07757  0.82379  0.02107  Biso   1.000  N  -0.445338
  N2       1.0000 0.67081  0.72825  0.93013  Biso   1.000  N  -0.443319
  N3       1.0000 0.07757  0.82379  0.07757  Biso   1.000  N  -0.445330
  N4       1.0000 0.72825  0.67081  0.93013  Biso   1.000  N  -0.443318
  N5       1.0000 0.93013  0.67081  0.67081  Biso   1.000  N  -0.443312
  N6       1.0000 0.02107  0.07757  0.07757  Biso   1.000  N  -0.445359
  N7       1.0000 0.07757  0.07757  0.02107  Biso   1.000  N  -0.445359
  N8       1.0000 0.67081  0.67081  0.72825  Biso   1.000  N  -0.443333
  N9       1.0000 0.67081  0.72825  0.67081  Biso   1.000  N  -0.443333
  N10      1.0000 0.67081  0.93013  0.67081  Biso   1.000  N  -0.443312
  N11      1.0000 0.72825  0.93013  0.67081  Biso   1.000  N  -0.443319
  N12      1.0000 0.67081  0.93013  0.72825  Biso   1.000  N  -0.443319
  N13      1.0000 0.07757  0.07757  0.82379  Biso   1.000  N  -0.445331
  N14      1.0000 0.93013  0.72825  0.67081  Biso   1.000  N  -0.443319
  N15      1.0000 0.82379  0.07757  0.07757  Biso   1.000  N  -0.445330
  N16      1.0000 0.07757  0.02107  0.07757  Biso   1.000  N  -0.445359
  N17      1.0000 0.67081  0.67081  0.93013  Biso   1.000  N  -0.443312
  N18      1.0000 0.02107  0.07757  0.82379  Biso   1.000  N  -0.445338
  N19      1.0000 0.02107  0.82379  0.07757  Biso   1.000  N  -0.445338
  N20      1.0000 0.82379  0.02107  0.07757  Biso   1.000  N  -0.445338
  N21      1.0000 0.07757  0.02107  0.82379  Biso   1.000  N  -0.445338
  N22      1.0000 0.72825  0.67081  0.67081  Biso   1.000  N  -0.443333
  N23      1.0000 0.93013  0.67081  0.72825  Biso   1.000  N  -0.443319
  N24      1.0000 0.82379  0.07757  0.02107  Biso   1.000  N  -0.445338
  O1       1.0000 0.83727  0.83727  0.39777  Biso   1.000  O  -1.199744
  O2       1.0000 0.92769  0.83727  0.39777  Biso   1.000  O  -1.199740
  O3       1.0000 0.90756  0.27356  0.85318  Biso   1.000  O  -0.582638
  O4       1.0000 0.78315  0.47435  0.90121  Biso   1.000  O  -0.603473
  O5       1.0000 0.89682  0.89682  0.30954  Biso   1.000  O  -0.875460
  O6       1.0000 0.85318  0.96570  0.27356  Biso   1.000  O  -0.582644
  O7       1.0000 0.85318  0.90756  0.27356  Biso   1.000  O  -0.582638
  O8       1.0000 0.47435  0.78315  0.84129  Biso   1.000  O  -0.603475
  O9       1.0000 0.84129  0.90121  0.78315  Biso   1.000  O  -0.603469
  O10      1.0000 0.85318  0.27356  0.96570  Biso   1.000  O  -0.582644
  O11      1.0000 0.30954  0.89682  0.89682  Biso   1.000  O  -0.875461
  O12      1.0000 0.85355  0.43935  0.85355  Biso   1.000  O  -0.894728
  O13      1.0000 0.47435  0.84129  0.90121  Biso   1.000  O  -0.603475
  O14      1.0000 0.91316  0.35052  0.82316  Biso   1.000  O  -1.199271
  O15      1.0000 0.96570  0.27356  0.90756  Biso   1.000  O  -0.582642
  O16      1.0000 0.47435  0.90121  0.78315  Biso   1.000  O  -0.603473
  O17      1.0000 0.47435  0.78315  0.90121  Biso   1.000  O  -0.603473
  O18      1.0000 0.39777  0.83727  0.92769  Biso   1.000  O  -1.199740
  O19      1.0000 0.90756  0.27356  0.96570  Biso   1.000  O  -0.582641
  O20      1.0000 0.91316  0.82316  0.91316  Biso   1.000  O  -1.199278
  O21      1.0000 0.96570  0.90756  0.85318  Biso   1.000  O  -0.582635
  O22      1.0000 0.84129  0.47435  0.90121  Biso   1.000  O  -0.603475
  O23      1.0000 0.43935  0.85355  0.85355  Biso   1.000  O  -0.894728
  O24      1.0000 0.83727  0.92769  0.83727  Biso   1.000  O  -1.199761
  O25      1.0000 0.96570  0.27356  0.85318  Biso   1.000  O  -0.582644
  O26      1.0000 0.78315  0.90121  0.84129  Biso   1.000  O  -0.603469
  O27      1.0000 0.96570  0.85318  0.27356  Biso   1.000  O  -0.582644
  O28      1.0000 0.90756  0.96570  0.85318  Biso   1.000  O  -0.582635
  O29      1.0000 0.92769  0.39777  0.83727  Biso   1.000  O  -1.199740
  O30      1.0000 0.27356  0.96570  0.85318  Biso   1.000  O  -0.582644
  O31      1.0000 0.89682  0.89682  0.89682  Biso   1.000  O  -0.875470
  O32      1.0000 0.35052  0.82316  0.91316  Biso   1.000  O  -1.199270
  O33      1.0000 0.90121  0.84129  0.47435  Biso   1.000  O  -0.603475
  O34      1.0000 0.84129  0.90121  0.47435  Biso   1.000  O  -0.603475
  O35      1.0000 0.27356  0.85318  0.96570  Biso   1.000  O  -0.582644
  O36      1.0000 0.84129  0.78315  0.47435  Biso   1.000  O  -0.603475
  O37      1.0000 0.83727  0.92769  0.39777  Biso   1.000  O  -1.199740
  O38      1.0000 0.47435  0.84129  0.78315  Biso   1.000  O  -0.603475
  O39      1.0000 0.83727  0.83727  0.92769  Biso   1.000  O  -1.199761
  O40      1.0000 0.35052  0.91316  0.91316  Biso   1.000  O  -1.199278
  O41      1.0000 0.90121  0.84129  0.78315  Biso   1.000  O  -0.603469
  O42      1.0000 0.82316  0.91316  0.35052  Biso   1.000  O  -1.199271
  O43      1.0000 0.90121  0.78315  0.47435  Biso   1.000  O  -0.603473
  O44      1.0000 0.91316  0.35052  0.91316  Biso   1.000  O  -1.199279
  O45      1.0000 0.85318  0.96570  0.90756  Biso   1.000  O  -0.582635
  O46      1.0000 0.89682  0.30954  0.89682  Biso   1.000  O  -0.875460
  O47      1.0000 0.78315  0.84129  0.47435  Biso   1.000  O  -0.603475
  O48      1.0000 0.85318  0.27356  0.90756  Biso   1.000  O  -0.582638
  O49      1.0000 0.83727  0.39777  0.92769  Biso   1.000  O  -1.199740
  O50      1.0000 0.78315  0.84129  0.90121  Biso   1.000  O  -0.603469
  O51      1.0000 0.27356  0.85318  0.90756  Biso   1.000  O  -0.582638
  O52      1.0000 0.85355  0.85355  0.43935  Biso   1.000  O  -0.894728
  O53      1.0000 0.84129  0.47435  0.78315  Biso   1.000  O  -0.603475
  O54      1.0000 0.91316  0.91316  0.35052  Biso   1.000  O  -1.199279
  O55      1.0000 0.90121  0.78315  0.84129  Biso   1.000  O  -0.603470
  O56      1.0000 0.78315  0.47435  0.84129  Biso   1.000  O  -0.603475
  O57      1.0000 0.39777  0.83727  0.83727  Biso   1.000  O  -1.199743
  O58      1.0000 0.82316  0.35052  0.91316  Biso   1.000  O  -1.199271
  O59      1.0000 0.84129  0.78315  0.90121  Biso   1.000  O  -0.603469
  O60      1.0000 0.90121  0.47435  0.84129  Biso   1.000  O  -0.603475
  O61      1.0000 0.92769  0.83727  0.83727  Biso   1.000  O  -1.199761
  O62      1.0000 0.91316  0.91316  0.82316  Biso   1.000  O  -1.199278
  O63      1.0000 0.90756  0.85318  0.27356  Biso   1.000  O  -0.582638
  O64      1.0000 0.96570  0.90756  0.27356  Biso   1.000  O  -0.582642
  O65      1.0000 0.78315  0.90121  0.47435  Biso   1.000  O  -0.603473
  O66      1.0000 0.35052  0.91316  0.82316  Biso   1.000  O  -1.199270
  O67      1.0000 0.27356  0.96570  0.90756  Biso   1.000  O  -0.582641
  O68      1.0000 0.96570  0.85318  0.90756  Biso   1.000  O  -0.582635
  O69      1.0000 0.47435  0.90121  0.84129  Biso   1.000  O  -0.603475
  O70      1.0000 0.27356  0.90756  0.96570  Biso   1.000  O  -0.582641
  O71      1.0000 0.90756  0.96570  0.27356  Biso   1.000  O  -0.582642
  O72      1.0000 0.83727  0.39777  0.83727  Biso   1.000  O  -1.199743
  O73      1.0000 0.27356  0.90756  0.85318  Biso   1.000  O  -0.582638
  O74      1.0000 0.91316  0.82316  0.35052  Biso   1.000  O  -1.199271
  O75      1.0000 0.85355  0.85355  0.85355  Biso   1.000  O  -0.894728
  O76      1.0000 0.82316  0.91316  0.91316  Biso   1.000  O  -1.199278
  O77      1.0000 0.85318  0.90756  0.96570  Biso   1.000  O  -0.582635
  O78      1.0000 0.90121  0.47435  0.78315  Biso   1.000  O  -0.603473
  O79      1.0000 0.39777  0.92769  0.83727  Biso   1.000  O  -1.199740
  O80      1.0000 0.90756  0.85318  0.96570  Biso   1.000  O  -0.582635
  Zr1      1.0000 0.33088  0.95016  0.85948  Biso   1.000  Zr  2.133755
  Zr2      1.0000 0.80010  0.89100  0.89100  Biso   1.000  Zr  2.141736
  Zr3      1.0000 0.89100  0.89100  0.41790  Biso   1.000  Zr  2.141713
  Zr4      1.0000 0.89100  0.41790  0.80010  Biso   1.000  Zr  2.141721
  Zr5      1.0000 0.89100  0.80010  0.41790  Biso   1.000  Zr  2.141721
  Zr6      1.0000 0.33088  0.85948  0.85948  Biso   1.000  Zr  2.133731
  Zr7      1.0000 0.41790  0.80010  0.89100  Biso   1.000  Zr  2.141718
  Zr8      1.0000 0.89100  0.89100  0.80010  Biso   1.000  Zr  2.141736
  Zr9      1.0000 0.89100  0.41790  0.89100  Biso   1.000  Zr  2.141713
  Zr10     1.0000 0.41790  0.89100  0.89100  Biso   1.000  Zr  2.141710
  Zr11     1.0000 0.85948  0.85948  0.33088  Biso   1.000  Zr  2.133733
  Zr12     1.0000 0.85948  0.33088  0.85948  Biso   1.000  Zr  2.133733
  Zr13     1.0000 0.85948  0.33088  0.95016  Biso   1.000  Zr  2.133756
  Zr14     1.0000 0.89100  0.80010  0.89100  Biso   1.000  Zr  2.141736
  Zr15     1.0000 0.85948  0.95016  0.85948  Biso   1.000  Zr  2.133775
  Zr16     1.0000 0.85948  0.95016  0.33088  Biso   1.000  Zr  2.133757
  Zr17     1.0000 0.95016  0.33088  0.85948  Biso   1.000  Zr  2.133756
  Zr18     1.0000 0.41790  0.89100  0.80010  Biso   1.000  Zr  2.141718
  Zr19     1.0000 0.95016  0.85948  0.33088  Biso   1.000  Zr  2.133757
  Zr20     1.0000 0.80010  0.89100  0.41790  Biso   1.000  Zr  2.141721
  Zr21     1.0000 0.33088  0.85948  0.95016  Biso   1.000  Zr  2.133755
  Zr22     1.0000 0.95016  0.85948  0.85948  Biso   1.000  Zr  2.133775
  Zr23     1.0000 0.80010  0.41790  0.89100  Biso   1.000  Zr  2.141720
  Zr24     1.0000 0.85948  0.85948  0.95016  Biso   1.000  Zr  2.133775
