data_image0
_cell_length_a       10.033
_cell_length_b       10.751
_cell_length_c       15.079
_cell_angle_alpha    89.06
_cell_angle_beta     85.07
_cell_angle_gamma    67.71

_symmetry_space_group_name_H-M    "P 1"
_symmetry_int_tables_number       1

loop_
  _symmetry_equiv_pos_as_xyz
  'x, y, z'

loop_
  _atom_site_label
  _atom_site_occupancy
  _atom_site_fract_x
  _atom_site_fract_y
  _atom_site_fract_z
  _atom_site_thermal_displace_type
  _atom_site_B_iso_or_equiv
  _atom_site_type_symbol
  _atom_site_charge
  C1       1.0000 0.67530  0.63710  0.98920  Biso   1.000  C  -0.169826
  C2       1.0000 0.32470  0.36290  0.01080  Biso   1.000  C  -0.169827
  C3       1.0000 0.79820  0.59390  0.03560  Biso   1.000  C  -0.078777
  C4       1.0000 0.20180  0.40610  0.96440  Biso   1.000  C  -0.078777
  C5       1.0000 0.87140  0.45570  0.04720  Biso   1.000  C  -0.085865
  C6       1.0000 0.12860  0.54430  0.95280  Biso   1.000  C  -0.085865
  C7       1.0000 0.82360  0.36230  0.01120  Biso   1.000  C  -0.181550
  C8       1.0000 0.17640  0.63770  0.98880  Biso   1.000  C  -0.181551
  C9       1.0000 0.70120  0.40750  0.96490  Biso   1.000  C  -0.074046
  C10      1.0000 0.29880  0.59250  0.03510  Biso   1.000  C  -0.074046
  C11      1.0000 0.62900  0.54490  0.95250  Biso   1.000  C  -0.080396
  C12      1.0000 0.37100  0.45510  0.04750  Biso   1.000  C  -0.080396
  C13      1.0000 0.52920  0.84520  0.80240  Biso   1.000  C  0.345099
  C14      1.0000 0.47080  0.15480  0.19760  Biso   1.000  C  0.345099
  C15      1.0000 0.61270  0.73320  0.73790  Biso   1.000  C  -0.529324
  C16      1.0000 0.38730  0.26680  0.26210  Biso   1.000  C  -0.529324
  C17      1.0000 0.48780  0.98180  0.76000  Biso   1.000  C  -0.521683
  C18      1.0000 0.51220  0.01820  0.24000  Biso   1.000  C  -0.521683
  C19      1.0000 0.90760  0.20470  0.20310  Biso   1.000  C  0.356612
  C20      1.0000 0.09240  0.79530  0.79690  Biso   1.000  C  0.356612
  C21      1.0000 0.80760  0.18860  0.27830  Biso   1.000  C  -0.520042
  C22      1.0000 0.19240  0.81140  0.72170  Biso   1.000  C  -0.520043
  C23      1.0000 0.05990  0.13500  0.22020  Biso   1.000  C  -0.538247
  C24      1.0000 0.94010  0.86500  0.77980  Biso   1.000  C  -0.538247
  C25      1.0000 0.32350  0.86180  0.48500  Biso   1.000  C  -0.170779
  C26      1.0000 0.67650  0.13820  0.51500  Biso   1.000  C  -0.170777
  C27      1.0000 0.37840  0.93690  0.53490  Biso   1.000  C  -0.079552
  C28      1.0000 0.62160  0.06310  0.46510  Biso   1.000  C  -0.079554
  C29      1.0000 0.30390  0.07340  0.54660  Biso   1.000  C  -0.074023
  C30      1.0000 0.69610  0.92660  0.45340  Biso   1.000  C  -0.074020
  C31      1.0000 0.17320  0.13830  0.50920  Biso   1.000  C  -0.170868
  C32      1.0000 0.82680  0.86170  0.49080  Biso   1.000  C  -0.170865
  C33      1.0000 0.11970  0.06300  0.45770  Biso   1.000  C  -0.079905
  C34      1.0000 0.88030  0.93700  0.54230  Biso   1.000  C  -0.079906
  C35      1.0000 0.19420  0.92690  0.44730  Biso   1.000  C  -0.070925
  C36      1.0000 0.80580  0.07310  0.55270  Biso   1.000  C  -0.070923
  C37      1.0000 0.47680  0.68120  0.29790  Biso   1.000  C  0.342172
  C38      1.0000 0.52320  0.31880  0.70210  Biso   1.000  C  0.342172
  C39      1.0000 0.36750  0.74830  0.23360  Biso   1.000  C  -0.521409
  C40      1.0000 0.63250  0.25170  0.76640  Biso   1.000  C  -0.521408
  C41      1.0000 0.59370  0.55640  0.25880  Biso   1.000  C  -0.516259
  C42      1.0000 0.40630  0.44360  0.74120  Biso   1.000  C  -0.516260
  C43      1.0000 0.99450  0.35150  0.69600  Biso   1.000  C  0.350307
  C44      1.0000 0.00550  0.64850  0.30400  Biso   1.000  C  0.350307
  C45      1.0000 0.04900  0.21970  0.74150  Biso   1.000  C  -0.529833
  C46      1.0000 0.95100  0.78030  0.25850  Biso   1.000  C  -0.529832
  C47      1.0000 0.97890  0.46830  0.75460  Biso   1.000  C  -0.513415
  C48      1.0000 0.02110  0.53170  0.24540  Biso   1.000  C  -0.513414
  Cu1      1.0000 0.24821  0.00035  0.00198  Biso   1.000  Cu  1.090870
  Cu2      1.0000 0.75179  0.99965  0.99802  Biso   1.000  Cu  1.090869
  Cu3      1.0000 0.74872  0.50182  0.49934  Biso   1.000  Cu  1.090156
  Cu4      1.0000 0.25128  0.49818  0.50066  Biso   1.000  Cu  1.090159
  H1       1.0000 0.83200  0.65690  0.05910  Biso   1.000  H  0.124613
  H2       1.0000 0.16800  0.34310  0.94090  Biso   1.000  H  0.124613
  H3       1.0000 0.95460  0.42500  0.07980  Biso   1.000  H  0.106502
  H4       1.0000 0.04540  0.57500  0.92020  Biso   1.000  H  0.106502
  H5       1.0000 0.66640  0.34500  0.94160  Biso   1.000  H  0.117701
  H6       1.0000 0.33360  0.65500  0.05840  Biso   1.000  H  0.117701
  H7       1.0000 0.54750  0.57550  0.91850  Biso   1.000  H  0.108789
  H8       1.0000 0.45250  0.42450  0.08150  Biso   1.000  H  0.108789
  H9       1.0000 0.43980  0.83260  0.82780  Biso   1.000  H  0.028276
  H10      1.0000 0.56020  0.16740  0.17220  Biso   1.000  H  0.028278
  H11      1.0000 0.55280  0.73330  0.68990  Biso   1.000  H  0.166130
  H12      1.0000 0.44720  0.26670  0.31010  Biso   1.000  H  0.166134
  H13      1.0000 0.70010  0.74570  0.71290  Biso   1.000  H  0.163358
  H14      1.0000 0.29990  0.25430  0.28710  Biso   1.000  H  0.163362
  H15      1.0000 0.63990  0.64730  0.76870  Biso   1.000  H  0.150045
  H16      1.0000 0.36010  0.35270  0.23130  Biso   1.000  H  0.150048
  H17      1.0000 0.42810  0.98650  0.71090  Biso   1.000  H  0.152191
  H18      1.0000 0.57190  0.01350  0.28910  Biso   1.000  H  0.152191
  H19      1.0000 0.43310  0.05190  0.80450  Biso   1.000  H  0.163339
  H20      1.0000 0.56690  0.94810  0.19550  Biso   1.000  H  0.163339
  H21      1.0000 0.57550  0.99550  0.73690  Biso   1.000  H  0.159424
  H22      1.0000 0.42450  0.00450  0.26310  Biso   1.000  H  0.159424
  H23      1.0000 0.88710  0.30260  0.19540  Biso   1.000  H  0.023658
  H24      1.0000 0.11290  0.69740  0.80460  Biso   1.000  H  0.023659
  H25      1.0000 0.82670  0.22270  0.33370  Biso   1.000  H  0.169330
  H26      1.0000 0.17330  0.77730  0.66630  Biso   1.000  H  0.169334
  H27      1.0000 0.70720  0.23930  0.26580  Biso   1.000  H  0.153660
  H28      1.0000 0.29280  0.76070  0.73420  Biso   1.000  H  0.153663
  H29      1.0000 0.82360  0.09320  0.28450  Biso   1.000  H  0.156241
  H30      1.0000 0.17640  0.90680  0.71550  Biso   1.000  H  0.156244
  H31      1.0000 0.07880  0.17320  0.27420  Biso   1.000  H  0.160591
  H32      1.0000 0.92120  0.82680  0.72580  Biso   1.000  H  0.160591
  H33      1.0000 0.08080  0.03920  0.22840  Biso   1.000  H  0.161140
  H34      1.0000 0.91920  0.96080  0.77160  Biso   1.000  H  0.161140
  H35      1.0000 0.12190  0.14680  0.16960  Biso   1.000  H  0.148765
  H36      1.0000 0.87810  0.85320  0.83040  Biso   1.000  H  0.148766
  H37      1.0000 0.46720  0.89380  0.56080  Biso   1.000  H  0.112501
  H38      1.0000 0.53280  0.10620  0.43920  Biso   1.000  H  0.112502
  H39      1.0000 0.34200  0.12400  0.58050  Biso   1.000  H  0.110411
  H40      1.0000 0.65800  0.87600  0.41950  Biso   1.000  H  0.110411
  H41      1.0000 0.03240  0.10600  0.43020  Biso   1.000  H  0.114143
  H42      1.0000 0.96760  0.89400  0.56980  Biso   1.000  H  0.114143
  H43      1.0000 0.15620  0.87610  0.41350  Biso   1.000  H  0.109300
  H44      1.0000 0.84380  0.12390  0.58650  Biso   1.000  H  0.109299
  H45      1.0000 0.52070  0.74510  0.31620  Biso   1.000  H  0.030237
  H46      1.0000 0.47930  0.25490  0.68380  Biso   1.000  H  0.030238
  H47      1.0000 0.41480  0.77330  0.18070  Biso   1.000  H  0.169189
  H48      1.0000 0.58520  0.22670  0.81930  Biso   1.000  H  0.169189
  H49      1.0000 0.32300  0.68640  0.21630  Biso   1.000  H  0.156929
  H50      1.0000 0.67700  0.31360  0.78370  Biso   1.000  H  0.156929
  H51      1.0000 0.29280  0.82920  0.26170  Biso   1.000  H  0.149103
  H52      1.0000 0.70720  0.17080  0.73830  Biso   1.000  H  0.149103
  H53      1.0000 0.64380  0.57940  0.20620  Biso   1.000  H  0.152417
  H54      1.0000 0.35620  0.42060  0.79380  Biso   1.000  H  0.152419
  H55      1.0000 0.66290  0.51510  0.30310  Biso   1.000  H  0.155176
  H56      1.0000 0.33710  0.48490  0.69690  Biso   1.000  H  0.155180
  H57      1.0000 0.55120  0.49300  0.24160  Biso   1.000  H  0.158462
  H58      1.0000 0.44880  0.50700  0.75840  Biso   1.000  H  0.158465
  H59      1.0000 0.89800  0.36570  0.67500  Biso   1.000  H  0.029230
  H60      1.0000 0.10200  0.63430  0.32500  Biso   1.000  H  0.029231
  H61      1.0000 0.98200  0.22080  0.79290  Biso   1.000  H  0.170888
  H62      1.0000 0.01800  0.77920  0.20710  Biso   1.000  H  0.170888
  H63      1.0000 0.05760  0.14760  0.69990  Biso   1.000  H  0.147839
  H64      1.0000 0.94240  0.85240  0.30010  Biso   1.000  H  0.147840
  H65      1.0000 0.14460  0.20400  0.76180  Biso   1.000  H  0.162958
  H66      1.0000 0.85540  0.79600  0.23820  Biso   1.000  H  0.162959
  H67      1.0000 0.91320  0.47160  0.80730  Biso   1.000  H  0.156472
  H68      1.0000 0.08680  0.52840  0.19270  Biso   1.000  H  0.156473
  H69      1.0000 0.07380  0.45780  0.77320  Biso   1.000  H  0.151548
  H70      1.0000 0.92620  0.54220  0.22680  Biso   1.000  H  0.151550
  H71      1.0000 0.93950  0.55190  0.72160  Biso   1.000  H  0.161334
  H72      1.0000 0.06050  0.44810  0.27840  Biso   1.000  H  0.161335
  O1       1.0000 0.42420  0.84090  0.99330  Biso   1.000  O  -0.762873
  O2       1.0000 0.57580  0.15910  0.00670  Biso   1.000  O  -0.762872
  O3       1.0000 0.64390  0.88930  0.03110  Biso   1.000  O  -0.753263
  O4       1.0000 0.35610  0.11070  0.96890  Biso   1.000  O  -0.753264
  O5       1.0000 0.61770  0.84590  0.87450  Biso   1.000  O  -0.451039
  O6       1.0000 0.38230  0.15410  0.12550  Biso   1.000  O  -0.451039
  O7       1.0000 0.85990  0.10970  0.96570  Biso   1.000  O  -0.746336
  O8       1.0000 0.14010  0.89030  0.03430  Biso   1.000  O  -0.746337
  O9       1.0000 0.07440  0.16040  0.01100  Biso   1.000  O  -0.748295
  O10      1.0000 0.92560  0.83960  0.98900  Biso   1.000  O  -0.748295
  O11      1.0000 0.87320  0.15210  0.12330  Biso   1.000  O  -0.458774
  O12      1.0000 0.12680  0.84790  0.87670  Biso   1.000  O  -0.458774
  O13      1.0000 0.58040  0.65990  0.48610  Biso   1.000  O  -0.755267
  O14      1.0000 0.41960  0.34010  0.51390  Biso   1.000  O  -0.755264
  O15      1.0000 0.35050  0.61170  0.53320  Biso   1.000  O  -0.741811
  O16      1.0000 0.64950  0.38830  0.46680  Biso   1.000  O  -0.741813
  O17      1.0000 0.40440  0.64540  0.37520  Biso   1.000  O  -0.456453
  O18      1.0000 0.59560  0.35460  0.62480  Biso   1.000  O  -0.456452
  O19      1.0000 0.15430  0.38590  0.46340  Biso   1.000  O  -0.743369
  O20      1.0000 0.84570  0.61410  0.53660  Biso   1.000  O  -0.743372
  O21      1.0000 0.91970  0.34330  0.50560  Biso   1.000  O  -0.762343
  O22      1.0000 0.08030  0.65670  0.49440  Biso   1.000  O  -0.762338
  O23      1.0000 0.09230  0.35230  0.61990  Biso   1.000  O  -0.458007
  O24      1.0000 0.90770  0.64770  0.38010  Biso   1.000  O  -0.458006
  P1       1.0000 0.58060  0.81560  0.97424  Biso   1.000  P  1.241853
  P2       1.0000 0.41940  0.18440  0.02576  Biso   1.000  P  1.241852
  P3       1.0000 0.91720  0.18500  0.02578  Biso   1.000  P  1.245040
  P4       1.0000 0.08280  0.81500  0.97422  Biso   1.000  P  1.245040
  P5       1.0000 0.42320  0.68290  0.47295  Biso   1.000  P  1.229747
  P6       1.0000 0.57680  0.31710  0.52705  Biso   1.000  P  1.229742
  P7       1.0000 0.07570  0.31710  0.52160  Biso   1.000  P  1.240790
  P8       1.0000 0.92430  0.68290  0.47840  Biso   1.000  P  1.240785
