data_image0
_cell_length_a       10.4582
_cell_length_b       31.6357
_cell_length_c       15.2842
_cell_angle_alpha    90
_cell_angle_beta     111.496
_cell_angle_gamma    90

_symmetry_space_group_name_H-M    "P 1"
_symmetry_int_tables_number       1

loop_
  _symmetry_equiv_pos_as_xyz
  'x, y, z'

loop_
  _atom_site_label
  _atom_site_occupancy
  _atom_site_fract_x
  _atom_site_fract_y
  _atom_site_fract_z
  _atom_site_thermal_displace_type
  _atom_site_B_iso_or_equiv
  _atom_site_type_symbol
  _atom_site_charge
  C1       1.0000 0.19680  0.73740  0.34560  Biso   1.000  C  0.096734
  C2       1.0000 0.80320  0.23740  0.15440  Biso   1.000  C  0.096734
  C3       1.0000 0.80320  0.26260  0.65440  Biso   1.000  C  0.096734
  C4       1.0000 0.19680  0.76260  0.84560  Biso   1.000  C  0.096734
  C5       1.0000 0.20300  0.78080  0.34520  Biso   1.000  C  -0.182673
  C6       1.0000 0.79700  0.28080  0.15480  Biso   1.000  C  -0.182673
  C7       1.0000 0.79700  0.21920  0.65480  Biso   1.000  C  -0.182673
  C8       1.0000 0.20300  0.71920  0.84520  Biso   1.000  C  -0.182673
  C9       1.0000 0.08900  0.80410  0.33830  Biso   1.000  C  0.137241
  C10      1.0000 0.91100  0.30410  0.16170  Biso   1.000  C  0.137241
  C11      1.0000 0.91100  0.19590  0.66170  Biso   1.000  C  0.137241
  C12      1.0000 0.08900  0.69590  0.83830  Biso   1.000  C  0.137241
  C13      1.0000 0.97440  0.78130  0.33250  Biso   1.000  C  -0.180614
  C14      1.0000 0.02560  0.28130  0.16750  Biso   1.000  C  -0.180614
  C15      1.0000 0.02560  0.21870  0.66750  Biso   1.000  C  -0.180614
  C16      1.0000 0.97440  0.71870  0.83250  Biso   1.000  C  -0.180614
  C17      1.0000 0.97400  0.73840  0.33060  Biso   1.000  C  0.079555
  C18      1.0000 0.02600  0.23840  0.16940  Biso   1.000  C  0.079555
  C19      1.0000 0.02600  0.26160  0.66940  Biso   1.000  C  0.079555
  C20      1.0000 0.97400  0.76160  0.83060  Biso   1.000  C  0.079555
  C21      1.0000 0.08230  0.85020  0.33720  Biso   1.000  C  0.018674
  C22      1.0000 0.91770  0.35020  0.16280  Biso   1.000  C  0.018674
  C23      1.0000 0.91770  0.14980  0.66280  Biso   1.000  C  0.018674
  C24      1.0000 0.08230  0.64980  0.83720  Biso   1.000  C  0.018674
  C25      1.0000 0.13360  0.04390  0.49540  Biso   1.000  C  0.088288
  C26      1.0000 0.86640  0.54390  0.00460  Biso   1.000  C  0.088288
  C27      1.0000 0.86640  0.95610  0.50460  Biso   1.000  C  0.088288
  C28      1.0000 0.13360  0.45610  0.99540  Biso   1.000  C  0.088288
  C29      1.0000 0.14570  0.00030  0.49590  Biso   1.000  C  -0.204432
  C30      1.0000 0.85430  0.50030  0.00410  Biso   1.000  C  -0.204432
  C31      1.0000 0.85430  0.99970  0.50410  Biso   1.000  C  -0.204432
  C32      1.0000 0.14570  0.49970  0.99590  Biso   1.000  C  -0.204432
  C33      1.0000 0.15850  0.98030  0.41880  Biso   1.000  C  0.139880
  C34      1.0000 0.84150  0.48030  0.08120  Biso   1.000  C  0.139880
  C35      1.0000 0.84150  0.01970  0.58120  Biso   1.000  C  0.139880
  C36      1.0000 0.15850  0.51970  0.91880  Biso   1.000  C  0.139880
  C37      1.0000 0.15630  0.00570  0.34750  Biso   1.000  C  -0.183160
  C38      1.0000 0.84370  0.50570  0.15250  Biso   1.000  C  -0.183160
  C39      1.0000 0.84370  0.99430  0.65250  Biso   1.000  C  -0.183160
  C40      1.0000 0.15630  0.49430  0.84750  Biso   1.000  C  -0.183160
  C41      1.0000 0.14380  0.04840  0.35450  Biso   1.000  C  0.095689
  C42      1.0000 0.85620  0.54840  0.14550  Biso   1.000  C  0.095689
  C43      1.0000 0.85620  0.95160  0.64550  Biso   1.000  C  0.095689
  C44      1.0000 0.14380  0.45160  0.85450  Biso   1.000  C  0.095689
  C45      1.0000 0.19970  0.23640  0.43260  Biso   1.000  C  0.080899
  C46      1.0000 0.80030  0.73640  0.06740  Biso   1.000  C  0.080899
  C47      1.0000 0.80030  0.76360  0.56740  Biso   1.000  C  0.080899
  C48      1.0000 0.19970  0.26360  0.93260  Biso   1.000  C  0.080899
  C49      1.0000 0.20240  0.27950  0.43290  Biso   1.000  C  -0.178207
  C50      1.0000 0.79760  0.77950  0.06710  Biso   1.000  C  -0.178207
  C51      1.0000 0.79760  0.72050  0.56710  Biso   1.000  C  -0.178207
  C52      1.0000 0.20240  0.22050  0.93290  Biso   1.000  C  -0.178207
  C53      1.0000 0.97820  0.27990  0.43130  Biso   1.000  C  -0.176091
  C54      1.0000 0.02180  0.77990  0.06870  Biso   1.000  C  -0.176091
  C55      1.0000 0.02180  0.72010  0.56870  Biso   1.000  C  -0.176091
  C56      1.0000 0.97820  0.22010  0.93130  Biso   1.000  C  -0.176091
  C57      1.0000 0.98350  0.23670  0.42980  Biso   1.000  C  0.089818
  C58      1.0000 0.01650  0.73670  0.07020  Biso   1.000  C  0.089818
  C59      1.0000 0.01650  0.76330  0.57020  Biso   1.000  C  0.089818
  C60      1.0000 0.98350  0.26330  0.92980  Biso   1.000  C  0.089818
  C61      1.0000 0.08880  0.30270  0.43180  Biso   1.000  C  0.136386
  C62      1.0000 0.91120  0.80270  0.06820  Biso   1.000  C  0.136386
  C63      1.0000 0.91120  0.69730  0.56820  Biso   1.000  C  0.136386
  C64      1.0000 0.08880  0.19730  0.93180  Biso   1.000  C  0.136386
  C65      1.0000 0.08160  0.34840  0.43400  Biso   1.000  C  0.052318
  C66      1.0000 0.91840  0.84840  0.06600  Biso   1.000  C  0.052318
  C67      1.0000 0.91840  0.65160  0.56600  Biso   1.000  C  0.052318
  C68      1.0000 0.08160  0.15160  0.93400  Biso   1.000  C  0.052318
  C69      1.0000 0.70990  0.14300  0.98450  Biso   1.000  C  0.542558
  C70      1.0000 0.29010  0.64300  0.51550  Biso   1.000  C  0.542558
  C71      1.0000 0.29010  0.85700  0.01550  Biso   1.000  C  0.542558
  C72      1.0000 0.70990  0.35700  0.48450  Biso   1.000  C  0.542558
  C73      1.0000 0.60290  0.14340  0.88550  Biso   1.000  C  -0.011513
  C74      1.0000 0.39710  0.64340  0.61450  Biso   1.000  C  -0.011513
  C75      1.0000 0.39710  0.85660  0.11450  Biso   1.000  C  -0.011513
  C76      1.0000 0.60290  0.35660  0.38550  Biso   1.000  C  -0.011513
  C77      1.0000 0.64090  0.14050  0.80780  Biso   1.000  C  -0.116943
  C78      1.0000 0.35910  0.64050  0.69220  Biso   1.000  C  -0.116943
  C79      1.0000 0.35910  0.85950  0.19220  Biso   1.000  C  -0.116943
  C80      1.0000 0.64090  0.35950  0.30780  Biso   1.000  C  -0.116943
  C81      1.0000 0.46280  0.14520  0.87160  Biso   1.000  C  -0.122003
  C82      1.0000 0.53720  0.64520  0.62840  Biso   1.000  C  -0.122003
  C83      1.0000 0.53720  0.85480  0.12840  Biso   1.000  C  -0.122003
  C84      1.0000 0.46280  0.35480  0.37160  Biso   1.000  C  -0.122003
  C85      1.0000 0.54340  0.14050  0.71800  Biso   1.000  C  -0.114389
  C86      1.0000 0.45660  0.64050  0.78200  Biso   1.000  C  -0.114389
  C87      1.0000 0.45660  0.85950  0.28200  Biso   1.000  C  -0.114389
  C88      1.0000 0.54340  0.35950  0.21800  Biso   1.000  C  -0.114389
  C89      1.0000 0.09500  0.50270  0.40990  Biso   1.000  C  -0.177609
  C90      1.0000 0.90500  0.00270  0.09010  Biso   1.000  C  -0.177609
  C91      1.0000 0.90500  0.49730  0.59010  Biso   1.000  C  -0.177609
  C92      1.0000 0.09500  0.99730  0.90990  Biso   1.000  C  -0.177609
  C93      1.0000 0.07650  0.54680  0.40120  Biso   1.000  C  0.103773
  C94      1.0000 0.92350  0.04680  0.09880  Biso   1.000  C  0.103773
  C95      1.0000 0.92350  0.45320  0.59880  Biso   1.000  C  0.103773
  C96      1.0000 0.07650  0.95320  0.90120  Biso   1.000  C  0.103773
  C97      1.0000 0.17690  0.54890  0.29410  Biso   1.000  C  0.086873
  C98      1.0000 0.82310  0.04890  0.20590  Biso   1.000  C  0.086873
  C99      1.0000 0.82310  0.45110  0.70590  Biso   1.000  C  0.086873
  C100     1.0000 0.17690  0.95110  0.79410  Biso   1.000  C  0.086873
  C101     1.0000 0.19040  0.50540  0.29360  Biso   1.000  C  -0.194536
  C102     1.0000 0.80960  0.00540  0.20640  Biso   1.000  C  -0.194536
  C103     1.0000 0.80960  0.49460  0.70640  Biso   1.000  C  -0.194536
  C104     1.0000 0.19040  0.99460  0.79360  Biso   1.000  C  -0.194536
  C105     1.0000 0.15560  0.48280  0.35930  Biso   1.000  C  0.137523
  C106     1.0000 0.84440  0.98280  0.14070  Biso   1.000  C  0.137523
  C107     1.0000 0.84440  0.51720  0.64070  Biso   1.000  C  0.137523
  C108     1.0000 0.15560  0.01720  0.85930  Biso   1.000  C  0.137523
  C109     1.0000 0.29700  0.14090  0.60570  Biso   1.000  C  0.565593
  C110     1.0000 0.70300  0.64090  0.89430  Biso   1.000  C  0.565593
  C111     1.0000 0.70300  0.85910  0.39430  Biso   1.000  C  0.565593
  C112     1.0000 0.29700  0.35910  0.10570  Biso   1.000  C  0.565593
  C113     1.0000 0.40480  0.14160  0.70330  Biso   1.000  C  -0.022995
  C114     1.0000 0.59520  0.64160  0.79670  Biso   1.000  C  -0.022995
  C115     1.0000 0.59520  0.85840  0.29670  Biso   1.000  C  -0.022995
  C116     1.0000 0.40480  0.35840  0.20330  Biso   1.000  C  -0.022995
  C117     1.0000 0.36610  0.14450  0.78330  Biso   1.000  C  -0.136610
  C118     1.0000 0.63390  0.64450  0.71670  Biso   1.000  C  -0.136610
  C119     1.0000 0.63390  0.85550  0.21670  Biso   1.000  C  -0.136610
  C120     1.0000 0.36610  0.35550  0.28330  Biso   1.000  C  -0.136609
  C121     1.0000 0.17850  0.43630  0.36670  Biso   1.000  C  0.020815
  C122     1.0000 0.82150  0.93630  0.13330  Biso   1.000  C  0.020815
  C123     1.0000 0.82150  0.56370  0.63330  Biso   1.000  C  0.020815
  C124     1.0000 0.17850  0.06370  0.86670  Biso   1.000  C  0.020815
  C125     1.0000 0.17220  0.93490  0.42140  Biso   1.000  C  -0.017013
  C126     1.0000 0.82780  0.43490  0.07860  Biso   1.000  C  -0.017013
  C127     1.0000 0.82780  0.06510  0.57860  Biso   1.000  C  -0.017013
  C128     1.0000 0.17220  0.56510  0.92140  Biso   1.000  C  -0.017013
  C129     1.0000 0.79910  0.14070  0.34930  Biso   1.000  C  0.567080
  C130     1.0000 0.20090  0.64070  0.15070  Biso   1.000  C  0.567080
  C131     1.0000 0.20090  0.85930  0.65070  Biso   1.000  C  0.567080
  C132     1.0000 0.79910  0.35930  0.84930  Biso   1.000  C  0.567080
  C133     1.0000 0.64450  0.14190  0.31960  Biso   1.000  C  -0.033497
  C134     1.0000 0.35550  0.64190  0.18040  Biso   1.000  C  -0.033497
  C135     1.0000 0.35550  0.85810  0.68040  Biso   1.000  C  -0.033497
  C136     1.0000 0.64450  0.35810  0.81960  Biso   1.000  C  -0.033497
  C137     1.0000 0.56160  0.14120  0.22500  Biso   1.000  C  -0.114526
  C138     1.0000 0.43840  0.64120  0.27500  Biso   1.000  C  -0.114525
  C139     1.0000 0.43840  0.85880  0.77500  Biso   1.000  C  -0.114525
  C140     1.0000 0.56160  0.35880  0.72500  Biso   1.000  C  -0.114525
  C141     1.0000 0.58630  0.14430  0.38780  Biso   1.000  C  -0.117840
  C142     1.0000 0.41370  0.64430  0.11220  Biso   1.000  C  -0.117840
  C143     1.0000 0.41370  0.85570  0.61220  Biso   1.000  C  -0.117840
  C144     1.0000 0.58630  0.35570  0.88780  Biso   1.000  C  -0.117840
  C145     1.0000 0.20500  0.14220  0.23910  Biso   1.000  C  0.563272
  C146     1.0000 0.79500  0.64220  0.26090  Biso   1.000  C  0.563272
  C147     1.0000 0.79500  0.85780  0.76090  Biso   1.000  C  0.563272
  C148     1.0000 0.20500  0.35780  0.73910  Biso   1.000  C  0.563272
  C149     1.0000 0.35920  0.14260  0.26670  Biso   1.000  C  -0.027494
  C150     1.0000 0.64080  0.64260  0.23330  Biso   1.000  C  -0.027494
  C151     1.0000 0.64080  0.85740  0.73330  Biso   1.000  C  -0.027494
  C152     1.0000 0.35920  0.35740  0.76670  Biso   1.000  C  -0.027494
  C153     1.0000 0.44260  0.14550  0.36160  Biso   1.000  C  -0.112776
  C154     1.0000 0.55740  0.64550  0.13840  Biso   1.000  C  -0.112776
  C155     1.0000 0.55740  0.85450  0.63840  Biso   1.000  C  -0.112776
  C156     1.0000 0.44260  0.35450  0.86160  Biso   1.000  C  -0.112776
  C157     1.0000 0.41990  0.14110  0.20000  Biso   1.000  C  -0.101564
  C158     1.0000 0.58010  0.64110  0.30000  Biso   1.000  C  -0.101564
  C159     1.0000 0.58010  0.85890  0.80000  Biso   1.000  C  -0.101564
  C160     1.0000 0.41990  0.35890  0.70000  Biso   1.000  C  -0.101564
  Cd1      1.0000 0.09316  0.14065  0.43214  Biso   1.000  Cd  0.864275
  Cd2      1.0000 0.90684  0.64065  0.06786  Biso   1.000  Cd  0.864275
  Cd3      1.0000 0.90684  0.85935  0.56786  Biso   1.000  Cd  0.864275
  Cd4      1.0000 0.09316  0.35935  0.93214  Biso   1.000  Cd  0.864275
  Cd5      1.0000 0.91327  0.14263  0.15669  Biso   1.000  Cd  0.860464
  Cd6      1.0000 0.08673  0.64263  0.34331  Biso   1.000  Cd  0.860464
  Cd7      1.0000 0.08673  0.85737  0.84331  Biso   1.000  Cd  0.860464
  Cd8      1.0000 0.91327  0.35737  0.65669  Biso   1.000  Cd  0.860464
  H1       1.0000 0.27630  0.72240  0.35200  Biso   1.000  H  0.097130
  H2       1.0000 0.72370  0.22240  0.14800  Biso   1.000  H  0.097130
  H3       1.0000 0.72370  0.27760  0.64800  Biso   1.000  H  0.097130
  H4       1.0000 0.27630  0.77760  0.85200  Biso   1.000  H  0.097130
  H5       1.0000 0.28410  0.79430  0.34950  Biso   1.000  H  0.133490
  H6       1.0000 0.71590  0.29430  0.15050  Biso   1.000  H  0.133490
  H7       1.0000 0.71590  0.20570  0.65050  Biso   1.000  H  0.133490
  H8       1.0000 0.28410  0.70570  0.84950  Biso   1.000  H  0.133490
  H9       1.0000 0.89530  0.79550  0.32970  Biso   1.000  H  0.132504
  H10      1.0000 0.10470  0.29550  0.17030  Biso   1.000  H  0.132504
  H11      1.0000 0.10470  0.20450  0.67030  Biso   1.000  H  0.132504
  H12      1.0000 0.89530  0.70450  0.82970  Biso   1.000  H  0.132504
  H13      1.0000 0.89340  0.72420  0.32450  Biso   1.000  H  0.097694
  H14      1.0000 0.10660  0.22420  0.17550  Biso   1.000  H  0.097694
  H15      1.0000 0.10660  0.27580  0.67550  Biso   1.000  H  0.097694
  H16      1.0000 0.89340  0.77580  0.82450  Biso   1.000  H  0.097694
  H17      1.0000 0.99860  0.86340  0.32690  Biso   1.000  H  0.105679
  H18      1.0000 0.00140  0.36340  0.17310  Biso   1.000  H  0.105679
  H19      1.0000 0.00140  0.13660  0.67310  Biso   1.000  H  0.105679
  H20      1.0000 0.99860  0.63660  0.82690  Biso   1.000  H  0.105679
  H21      1.0000 0.12910  0.05690  0.54880  Biso   1.000  H  0.087442
  H22      1.0000 0.87090  0.55690  0.95120  Biso   1.000  H  0.087442
  H23      1.0000 0.87090  0.94310  0.45120  Biso   1.000  H  0.087442
  H24      1.0000 0.12910  0.44310  0.04880  Biso   1.000  H  0.087442
  H25      1.0000 0.14520  0.98460  0.54720  Biso   1.000  H  0.126367
  H26      1.0000 0.85480  0.48460  0.95280  Biso   1.000  H  0.126367
  H27      1.0000 0.85480  0.01540  0.45280  Biso   1.000  H  0.126367
  H28      1.0000 0.14520  0.51540  0.04720  Biso   1.000  H  0.126367
  H29      1.0000 0.16320  0.99420  0.29350  Biso   1.000  H  0.127964
  H30      1.0000 0.83680  0.49420  0.20650  Biso   1.000  H  0.127964
  H31      1.0000 0.83680  0.00580  0.70650  Biso   1.000  H  0.127964
  H32      1.0000 0.16320  0.50580  0.79350  Biso   1.000  H  0.127964
  H33      1.0000 0.14680  0.06500  0.30510  Biso   1.000  H  0.083180
  H34      1.0000 0.85320  0.56500  0.19490  Biso   1.000  H  0.083180
  H35      1.0000 0.85320  0.93500  0.69490  Biso   1.000  H  0.083180
  H36      1.0000 0.14680  0.43500  0.80510  Biso   1.000  H  0.083180
  H37      1.0000 0.27810  0.22200  0.43410  Biso   1.000  H  0.100715
  H38      1.0000 0.72190  0.72200  0.06590  Biso   1.000  H  0.100715
  H39      1.0000 0.72190  0.77800  0.56590  Biso   1.000  H  0.100715
  H40      1.0000 0.27810  0.27800  0.93410  Biso   1.000  H  0.100715
  H41      1.0000 0.28100  0.29360  0.43380  Biso   1.000  H  0.133191
  H42      1.0000 0.71900  0.79360  0.06620  Biso   1.000  H  0.133191
  H43      1.0000 0.71900  0.70640  0.56620  Biso   1.000  H  0.133191
  H44      1.0000 0.28100  0.20640  0.93380  Biso   1.000  H  0.133191
  H45      1.0000 0.89980  0.29350  0.43190  Biso   1.000  H  0.135378
  H46      1.0000 0.10020  0.79350  0.06810  Biso   1.000  H  0.135378
  H47      1.0000 0.10020  0.70650  0.56810  Biso   1.000  H  0.135378
  H48      1.0000 0.89980  0.20650  0.93190  Biso   1.000  H  0.135378
  H49      1.0000 0.90530  0.22220  0.42830  Biso   1.000  H  0.088683
  H50      1.0000 0.09470  0.72220  0.07170  Biso   1.000  H  0.088683
  H51      1.0000 0.09470  0.77780  0.57170  Biso   1.000  H  0.088683
  H52      1.0000 0.90530  0.27780  0.92830  Biso   1.000  H  0.088683
  H53      1.0000 0.00970  0.36110  0.44630  Biso   1.000  H  0.112100
  H54      1.0000 0.99030  0.86110  0.05370  Biso   1.000  H  0.112100
  H55      1.0000 0.99030  0.63890  0.55370  Biso   1.000  H  0.112100
  H56      1.0000 0.00970  0.13890  0.94630  Biso   1.000  H  0.112100
  H57      1.0000 0.73350  0.13860  0.81650  Biso   1.000  H  0.106121
  H58      1.0000 0.26650  0.63860  0.68350  Biso   1.000  H  0.106121
  H59      1.0000 0.26650  0.86140  0.18350  Biso   1.000  H  0.106121
  H60      1.0000 0.73350  0.36140  0.31650  Biso   1.000  H  0.106121
  H61      1.0000 0.43590  0.14690  0.92310  Biso   1.000  H  0.105793
  H62      1.0000 0.56410  0.64690  0.57690  Biso   1.000  H  0.105793
  H63      1.0000 0.56410  0.85310  0.07690  Biso   1.000  H  0.105793
  H64      1.0000 0.43590  0.35310  0.42310  Biso   1.000  H  0.105793
  H65      1.0000 0.57100  0.13980  0.66670  Biso   1.000  H  0.101789
  H66      1.0000 0.42900  0.63980  0.83330  Biso   1.000  H  0.101789
  H67      1.0000 0.42900  0.86020  0.33330  Biso   1.000  H  0.101789
  H68      1.0000 0.57100  0.36020  0.16670  Biso   1.000  H  0.101789
  H69      1.0000 0.06490  0.48770  0.45100  Biso   1.000  H  0.125116
  H70      1.0000 0.93510  0.98770  0.04900  Biso   1.000  H  0.125116
  H71      1.0000 0.93510  0.51230  0.54900  Biso   1.000  H  0.125116
  H72      1.0000 0.06490  0.01230  0.95100  Biso   1.000  H  0.125116
  H73      1.0000 0.03280  0.56030  0.43650  Biso   1.000  H  0.094227
  H74      1.0000 0.96720  0.06030  0.06350  Biso   1.000  H  0.094227
  H75      1.0000 0.96720  0.43970  0.56350  Biso   1.000  H  0.094227
  H76      1.0000 0.03280  0.93970  0.93650  Biso   1.000  H  0.094227
  H77      1.0000 0.21080  0.56490  0.25640  Biso   1.000  H  0.091065
  H78      1.0000 0.78920  0.06490  0.24360  Biso   1.000  H  0.091065
  H79      1.0000 0.78920  0.43510  0.74360  Biso   1.000  H  0.091065
  H80      1.0000 0.21080  0.93510  0.75640  Biso   1.000  H  0.091065
  H81      1.0000 0.22140  0.49190  0.25110  Biso   1.000  H  0.135780
  H82      1.0000 0.77860  0.99190  0.24890  Biso   1.000  H  0.135780
  H83      1.0000 0.77860  0.50810  0.74890  Biso   1.000  H  0.135780
  H84      1.0000 0.22140  0.00810  0.75110  Biso   1.000  H  0.135780
  H85      1.0000 0.27350  0.14590  0.77500  Biso   1.000  H  0.094642
  H86      1.0000 0.72650  0.64590  0.72500  Biso   1.000  H  0.094642
  H87      1.0000 0.72650  0.85410  0.22500  Biso   1.000  H  0.094642
  H88      1.0000 0.27350  0.35410  0.27500  Biso   1.000  H  0.094642
  H89      1.0000 0.22270  0.42340  0.33090  Biso   1.000  H  0.100446
  H90      1.0000 0.77730  0.92340  0.16910  Biso   1.000  H  0.100446
  H91      1.0000 0.77730  0.57660  0.66910  Biso   1.000  H  0.100446
  H92      1.0000 0.22270  0.07660  0.83090  Biso   1.000  H  0.100446
  H93      1.0000 0.18250  0.91980  0.47580  Biso   1.000  H  0.116654
  H94      1.0000 0.81750  0.41980  0.02420  Biso   1.000  H  0.116654
  H95      1.0000 0.81750  0.08020  0.52420  Biso   1.000  H  0.116654
  H96      1.0000 0.18250  0.58020  0.97580  Biso   1.000  H  0.116654
  H97      1.0000 0.60030  0.14070  0.17910  Biso   1.000  H  0.126448
  H98      1.0000 0.39970  0.64070  0.32090  Biso   1.000  H  0.126448
  H99      1.0000 0.39970  0.85930  0.82090  Biso   1.000  H  0.126448
  H100     1.0000 0.60030  0.35930  0.67910  Biso   1.000  H  0.126448
  H101     1.0000 0.64260  0.14510  0.45110  Biso   1.000  H  0.112725
  H102     1.0000 0.35740  0.64510  0.04890  Biso   1.000  H  0.112725
  H103     1.0000 0.35740  0.85490  0.54890  Biso   1.000  H  0.112725
  H104     1.0000 0.64260  0.35490  0.95110  Biso   1.000  H  0.112725
  H105     1.0000 0.40360  0.14820  0.40710  Biso   1.000  H  0.125312
  H106     1.0000 0.59640  0.64820  0.09290  Biso   1.000  H  0.125312
  H107     1.0000 0.59640  0.85180  0.59290  Biso   1.000  H  0.125312
  H108     1.0000 0.40360  0.35180  0.90710  Biso   1.000  H  0.125312
  H109     1.0000 0.36420  0.14010  0.13660  Biso   1.000  H  0.115122
  H110     1.0000 0.63580  0.64010  0.36340  Biso   1.000  H  0.115122
  H111     1.0000 0.63580  0.85990  0.86340  Biso   1.000  H  0.115122
  H112     1.0000 0.36420  0.35990  0.63660  Biso   1.000  H  0.115122
  N1       1.0000 0.08700  0.71580  0.33760  Biso   1.000  N  -0.214604
  N2       1.0000 0.91300  0.21580  0.16240  Biso   1.000  N  -0.214604
  N3       1.0000 0.91300  0.28420  0.66240  Biso   1.000  N  -0.214604
  N4       1.0000 0.08700  0.78420  0.83760  Biso   1.000  N  -0.214604
  N5       1.0000 0.18610  0.87220  0.34960  Biso   1.000  N  -0.081571
  N6       1.0000 0.81390  0.37220  0.15040  Biso   1.000  N  -0.081571
  N7       1.0000 0.81390  0.12780  0.65040  Biso   1.000  N  -0.081571
  N8       1.0000 0.18610  0.62780  0.84960  Biso   1.000  N  -0.081571
  N9       1.0000 0.16970  0.91560  0.34520  Biso   1.000  N  -0.117363
  N10      1.0000 0.83030  0.41560  0.15480  Biso   1.000  N  -0.117363
  N11      1.0000 0.83030  0.08440  0.65480  Biso   1.000  N  -0.117363
  N12      1.0000 0.16970  0.58440  0.84520  Biso   1.000  N  -0.117363
  N13      1.0000 0.12810  0.06760  0.42500  Biso   1.000  N  -0.205521
  N14      1.0000 0.87190  0.56760  0.07500  Biso   1.000  N  -0.205521
  N15      1.0000 0.87190  0.93240  0.57500  Biso   1.000  N  -0.205521
  N16      1.0000 0.12810  0.43240  0.92500  Biso   1.000  N  -0.205521
  N17      1.0000 0.08960  0.21340  0.43030  Biso   1.000  N  -0.209801
  N18      1.0000 0.91040  0.71340  0.06970  Biso   1.000  N  -0.209801
  N19      1.0000 0.91040  0.78660  0.56970  Biso   1.000  N  -0.209801
  N20      1.0000 0.08960  0.28660  0.93030  Biso   1.000  N  -0.209801
  N21      1.0000 0.17000  0.37110  0.41980  Biso   1.000  N  -0.144267
  N22      1.0000 0.83000  0.87110  0.08020  Biso   1.000  N  -0.144267
  N23      1.0000 0.83000  0.62890  0.58020  Biso   1.000  N  -0.144267
  N24      1.0000 0.17000  0.12890  0.91980  Biso   1.000  N  -0.144267
  N25      1.0000 0.13920  0.41430  0.42010  Biso   1.000  N  -0.142843
  N26      1.0000 0.86080  0.91430  0.07990  Biso   1.000  N  -0.142842
  N27      1.0000 0.86080  0.58570  0.57990  Biso   1.000  N  -0.142843
  N28      1.0000 0.13920  0.08570  0.92010  Biso   1.000  N  -0.142843
  N29      1.0000 0.11770  0.56900  0.34610  Biso   1.000  N  -0.209433
  N30      1.0000 0.88230  0.06900  0.15390  Biso   1.000  N  -0.209433
  N31      1.0000 0.88230  0.43100  0.65390  Biso   1.000  N  -0.209433
  N32      1.0000 0.11770  0.93100  0.84610  Biso   1.000  N  -0.209433
  O1       1.0000 0.83590  0.14010  0.99320  Biso   1.000  O  -0.576123
  O2       1.0000 0.16410  0.64010  0.50680  Biso   1.000  O  -0.576123
  O3       1.0000 0.16410  0.85990  0.00680  Biso   1.000  O  -0.576123
  O4       1.0000 0.83590  0.35990  0.49320  Biso   1.000  O  -0.576123
  O5       1.0000 0.67130  0.14610  0.05260  Biso   1.000  O  -0.556771
  O6       1.0000 0.32870  0.64610  0.44740  Biso   1.000  O  -0.556771
  O7       1.0000 0.32870  0.85390  0.94740  Biso   1.000  O  -0.556771
  O8       1.0000 0.67130  0.35390  0.55260  Biso   1.000  O  -0.556771
  O9       1.0000 0.17400  0.13700  0.59650  Biso   1.000  O  -0.587938
  O10      1.0000 0.82600  0.63700  0.90350  Biso   1.000  O  -0.587938
  O11      1.0000 0.82600  0.86300  0.40350  Biso   1.000  O  -0.587938
  O12      1.0000 0.17400  0.36300  0.09650  Biso   1.000  O  -0.587938
  O13      1.0000 0.33330  0.14440  0.53710  Biso   1.000  O  -0.571507
  O14      1.0000 0.66670  0.64440  0.96290  Biso   1.000  O  -0.571507
  O15      1.0000 0.66670  0.85560  0.46290  Biso   1.000  O  -0.571507
  O16      1.0000 0.33330  0.35560  0.03710  Biso   1.000  O  -0.571507
  O17      1.0000 0.85240  0.14280  0.28780  Biso   1.000  O  -0.593237
  O18      1.0000 0.14760  0.64280  0.21220  Biso   1.000  O  -0.593237
  O19      1.0000 0.14760  0.85720  0.71220  Biso   1.000  O  -0.593237
  O20      1.0000 0.85240  0.35720  0.78780  Biso   1.000  O  -0.593237
  O21      1.0000 0.87170  0.13760  0.43540  Biso   1.000  O  -0.561417
  O22      1.0000 0.12830  0.63760  0.06460  Biso   1.000  O  -0.561417
  O23      1.0000 0.12830  0.86240  0.56460  Biso   1.000  O  -0.561417
  O24      1.0000 0.87170  0.36240  0.93540  Biso   1.000  O  -0.561417
  O25      1.0000 0.13260  0.13870  0.15200  Biso   1.000  O  -0.556115
  O26      1.0000 0.86740  0.63870  0.34800  Biso   1.000  O  -0.556114
  O27      1.0000 0.86740  0.86130  0.84800  Biso   1.000  O  -0.556115
  O28      1.0000 0.13260  0.36130  0.65200  Biso   1.000  O  -0.556115
  O29      1.0000 0.14840  0.14630  0.29770  Biso   1.000  O  -0.585473
  O30      1.0000 0.85160  0.64630  0.20230  Biso   1.000  O  -0.585473
  O31      1.0000 0.85160  0.85370  0.70230  Biso   1.000  O  -0.585473
  O32      1.0000 0.14840  0.35370  0.79770  Biso   1.000  O  -0.585473
