
##########################################################################
#               Crystallographic Information Format file
#               Produced by PyCifRW module
#
#  This is a CIF file.  CIF has been adopted by the International
#  Union of Crystallography as the standard for data archiving and
#  transmission.
#
#  For information on this file format, follow the CIF links at
#  http://www.iucr.org
##########################################################################

data_image0

_cell_length_a                          10.0903
_cell_length_b                          10.0903
_cell_length_c                          21.2568
_cell_angle_alpha                       90
_cell_angle_beta                        90
_cell_angle_gamma                       120
_symmetry_space_group_name_H-M          'P 1'
_symmetry_int_tables_number             1
loop_
  _symmetry_equiv_pos_as_xyz
         'x, y, z' 
loop_
  _atom_site_label
  _atom_site_occupancy
  _atom_site_fract_x
  _atom_site_fract_y
  _atom_site_fract_z
  _atom_site_thermal_displace_type
  _atom_site_B_iso_or_equiv
  _atom_site_type_symbol
  _atom_site_charge
         C1        1.0000    0.90529   0.36408   0.84058   Biso      1.000     C          -0.08518099999999999          
         C2        1.0000    0.39735   0.16034   0.59661   Biso      1.000     C          -0.100145           
         C3        1.0000    0.50100   0.13107   0.56839   Biso      1.000     C          0.00285   
         C4        1.0000    0.83966   0.23701   0.92995   Biso      1.000     C          -0.102156           
         C5        1.0000    0.86893   0.36993   0.90173   Biso      1.000     C          0.002938  
         C6        1.0000    0.63592   0.54121   0.17391   Biso      1.000     C          -0.08503200000000001          
         C7        1.0000    0.76299   0.60265   0.26328   Biso      1.000     C          -0.100686           
         C8        1.0000    0.45879   0.09471   0.50724   Biso      1.000     C          -0.085065           
         C9        1.0000    0.63007   0.49900   0.23506   Biso      1.000     C          0.002205  
         C10       1.0000    0.60265   0.83966   0.09661   Biso      1.000     C          -0.10014400000000001          
         C11       1.0000    0.49900   0.86893   0.06839   Biso      1.000     C          0.002853  
         C12       1.0000    0.36993   0.50100   0.73506   Biso      1.000     C          0.0021780000000000002         
         C13       1.0000    0.23701   0.39735   0.76328   Biso      1.000     C          -0.10068099999999999          
         C14       1.0000    0.36408   0.45879   0.67391   Biso      1.000     C          -0.085024           
         C15       1.0000    0.13107   0.63007   0.40173   Biso      1.000     C          0.002908  
         C16       1.0000    0.54121   0.90529   0.00724   Biso      1.000     C          -0.085064           
         C17       1.0000    0.86893   0.49900   0.93161   Biso      1.000     C          0.002843  
         C18       1.0000    0.83966   0.60265   0.90339   Biso      1.000     C          -0.100133           
         C19       1.0000    0.90529   0.54121   0.99276   Biso      1.000     C          -0.08506799999999999          
         C20       1.0000    0.36408   0.90529   0.15942   Biso      1.000     C          -0.085187           
         C21       1.0000    0.23701   0.83966   0.07005   Biso      1.000     C          -0.102156           
         C22       1.0000    0.36993   0.86893   0.09827   Biso      1.000     C          0.002935  
         C23       1.0000    0.54121   0.63592   0.82609   Biso      1.000     C          -0.08503200000000001          
         C24       1.0000    0.60265   0.76299   0.73672   Biso      1.000     C          -0.100685           
         C25       1.0000    0.49900   0.63007   0.76494   Biso      1.000     C          0.002206  
         C26       1.0000    0.09471   0.45879   0.49276   Biso      1.000     C          -0.085079           
         C27       1.0000    0.16034   0.39735   0.40339   Biso      1.000     C          -0.100146           
         C28       1.0000    0.13107   0.50100   0.43161   Biso      1.000     C          0.002869  
         C29       1.0000    0.63592   0.09471   0.65942   Biso      1.000     C          -0.085177           
         C30       1.0000    0.76299   0.16034   0.57005   Biso      1.000     C          -0.102156           
         C31       1.0000    0.63007   0.13107   0.59827   Biso      1.000     C          0.002939  
         C32       1.0000    0.45879   0.36408   0.32609   Biso      1.000     C          -0.085035           
         C33       1.0000    0.39735   0.23701   0.23672   Biso      1.000     C          -0.10069199999999999          
         C34       1.0000    0.50100   0.36993   0.26494   Biso      1.000     C          0.002198  
         C35       1.0000    0.16034   0.76299   0.42995   Biso      1.000     C          -0.102142           
         C36       1.0000    0.09471   0.63592   0.34058   Biso      1.000     C          -0.08516  
         Cd1       1.0000    0.91181   0.08818   0.75000   Biso      1.000     Cd          0.663324  
         Cd2       1.0000    0.08818   0.91181   0.25000   Biso      1.000     Cd          0.663325  
         Cd3       1.0000    0.17637   0.08818   0.41667   Biso      1.000     Cd          0.663159  
         Cd4       1.0000    0.91181   0.82362   0.08333   Biso      1.000     Cd          0.663159  
         Cd5       1.0000    0.82363   0.91182   0.91667   Biso      1.000     Cd          0.6631600000000001  
         Cd6       1.0000    0.08818   0.17637   0.58333   Biso      1.000     Cd          0.663158  
         H1        1.0000    0.44173   0.93093   0.19007   Biso      1.000     H          0.124027  
         H2        1.0000    0.21032   0.39891   0.80602   Biso      1.000     H          0.11691199999999999           
         H3        1.0000    0.44173   0.51080   0.64326   Biso      1.000     H          0.124049  
         H4        1.0000    0.18859   0.78968   0.47269   Biso      1.000     H          0.11803   
         H5        1.0000    0.06907   0.55827   0.30993   Biso      1.000     H          0.124028  
         H6        1.0000    0.60109   0.81141   0.13935   Biso      1.000     H          0.11651900000000001           
         H7        1.0000    0.48920   0.93093   0.97659   Biso      1.000     H          0.124045  
         H8        1.0000    0.78968   0.60109   0.30602   Biso      1.000     H          0.116914  
         H9        1.0000    0.55827   0.48920   0.14326   Biso      1.000     H          0.124052  
         H10       1.0000    0.81141   0.21032   0.97269   Biso      1.000     H          0.118031  
         H11       1.0000    0.21032   0.81141   0.02731   Biso      1.000     H          0.118029  
         H12       1.0000    0.39891   0.18859   0.63935   Biso      1.000     H          0.11651900000000001           
         H13       1.0000    0.93093   0.44173   0.80993   Biso      1.000     H          0.124028  
         H14       1.0000    0.48920   0.55827   0.85674   Biso      1.000     H          0.124051  
         H15       1.0000    0.06907   0.51080   0.52341   Biso      1.000     H          0.124046  
         H16       1.0000    0.18859   0.39891   0.36065   Biso      1.000     H          0.11652   
         H17       1.0000    0.55827   0.06907   0.69007   Biso      1.000     H          0.124029  
         H18       1.0000    0.78968   0.18859   0.52731   Biso      1.000     H          0.118031  
         H19       1.0000    0.60109   0.78968   0.69398   Biso      1.000     H          0.11691300000000002           
         H20       1.0000    0.51080   0.44173   0.35674   Biso      1.000     H          0.12405   
         H21       1.0000    0.39891   0.21032   0.19398   Biso      1.000     H          0.11691300000000002           
         H22       1.0000    0.93093   0.48920   0.02341   Biso      1.000     H          0.124046  
         H23       1.0000    0.81141   0.60109   0.86065   Biso      1.000     H          0.11651900000000001           
         H24       1.0000    0.51080   0.06907   0.47659   Biso      1.000     H          0.124045  
         N1        1.0000    0.85791   0.70890   0.94711   Biso      1.000     N          -0.209352           
         N2        1.0000    0.70890   0.85099   0.78044   Biso      1.000     N          -0.208637           
         N3        1.0000    0.10153   0.32907   0.50234   Biso      1.000     N          -0.180225           
         N4        1.0000    0.14209   0.29110   0.44711   Biso      1.000     N          -0.209337           
         N5        1.0000    0.77246   0.10153   0.66900   Biso      1.000     N          -0.180814           
         N6        1.0000    0.85099   0.14209   0.61377   Biso      1.000     N          -0.20879699999999998          
         N7        1.0000    0.32907   0.22754   0.33567   Biso      1.000     N          -0.18034  
         N8        1.0000    0.29110   0.14901   0.28044   Biso      1.000     N          -0.208617           
         N9        1.0000    0.89847   0.67093   0.00234   Biso      1.000     N          -0.180199           
         N10       1.0000    0.67093   0.77246   0.83567   Biso      1.000     N          -0.180323           
         N11       1.0000    0.32907   0.10153   0.49766   Biso      1.000     N          -0.180227           
         N12       1.0000    0.67093   0.89847   0.99766   Biso      1.000     N          -0.180224           
         N13       1.0000    0.89847   0.22754   0.83100   Biso      1.000     N          -0.180802           
         N14       1.0000    0.85791   0.14901   0.88623   Biso      1.000     N          -0.20880300000000002          
         N15       1.0000    0.77246   0.67093   0.16433   Biso      1.000     N          -0.180332           
         N16       1.0000    0.85099   0.70890   0.21956   Biso      1.000     N          -0.20861999999999997          
         N17       1.0000    0.70890   0.85791   0.05289   Biso      1.000     N          -0.20934699999999998          
         N18       1.0000    0.10153   0.77246   0.33100   Biso      1.000     N          -0.180816           
         N19       1.0000    0.14209   0.85099   0.38623   Biso      1.000     N          -0.208798           
         N20       1.0000    0.22754   0.32907   0.66433   Biso      1.000     N          -0.180341           
         N21       1.0000    0.14901   0.29110   0.71956   Biso      1.000     N          -0.208619           
         N22       1.0000    0.14901   0.85791   0.11377   Biso      1.000     N          -0.208833           
         N23       1.0000    0.29110   0.14209   0.55289   Biso      1.000     N          -0.20933600000000002          
         N24       1.0000    0.22754   0.89847   0.16900   Biso      1.000     N          -0.180788 