data_image0
_cell_length_a       13.1927
_cell_length_b       13.1927
_cell_length_c       17.6922
_cell_angle_alpha    111.891
_cell_angle_beta     111.891
_cell_angle_gamma    90.0001

_symmetry_space_group_name_H-M    "P 1"
_symmetry_int_tables_number       1

loop_
  _symmetry_equiv_pos_as_xyz
  'x, y, z'

loop_
  _atom_site_label
  _atom_site_occupancy
  _atom_site_fract_x
  _atom_site_fract_y
  _atom_site_fract_z
  _atom_site_thermal_displace_type
  _atom_site_B_iso_or_equiv
  _atom_site_type_symbol
  _atom_site_charge
  C1       1.0000 0.31954  0.05416  0.47330  Biso   1.000  C  0.626776
  C2       1.0000 0.41710  0.04197  0.54648  Biso   1.000  C  -0.426607
  C3       1.0000 0.38233  0.99432  0.60402  Biso   1.000  C  0.272469
  C4       1.0000 0.49200  0.00857  0.68420  Biso   1.000  C  -0.421690
  C5       1.0000 0.47951  0.95560  0.74384  Biso   1.000  C  0.668644
  C6       1.0000 0.29893  0.06276  0.63594  Biso   1.000  C  0.548811
  C7       1.0000 0.15376  0.41914  0.47330  Biso   1.000  C  0.627420
  C8       1.0000 0.12938  0.50451  0.54648  Biso   1.000  C  -0.427783
  C9       1.0000 0.22169  0.60970  0.60402  Biso   1.000  C  0.277026
  C10      1.0000 0.19220  0.67563  0.68420  Biso   1.000  C  -0.421645
  C11      1.0000 0.26433  0.78824  0.74384  Biso   1.000  C  0.668014
  C12      1.0000 0.33701  0.57318  0.63594  Biso   1.000  C  0.548029
  C13      1.0000 0.94584  0.84624  0.52670  Biso   1.000  C  0.628523
  C14      1.0000 0.95803  0.87062  0.45352  Biso   1.000  C  -0.430595
  C15      1.0000 0.00568  0.77831  0.39598  Biso   1.000  C  0.279979
  C16      1.0000 0.99143  0.80780  0.31580  Biso   1.000  C  -0.421886
  C17      1.0000 0.04440  0.73567  0.25616  Biso   1.000  C  0.666739
  C18      1.0000 0.93724  0.66299  0.36406  Biso   1.000  C  0.547051
  C19      1.0000 0.58086  0.68046  0.52670  Biso   1.000  C  0.631104
  C20      1.0000 0.49549  0.58290  0.45352  Biso   1.000  C  -0.429311
  C21      1.0000 0.39030  0.61767  0.39598  Biso   1.000  C  0.279553
  C22      1.0000 0.32437  0.50800  0.31580  Biso   1.000  C  -0.425550
  C23      1.0000 0.21176  0.52049  0.25616  Biso   1.000  C  0.668774
  C24      1.0000 0.42682  0.70107  0.36406  Biso   1.000  C  0.547412
  C25      1.0000 0.09624  0.69584  0.02670  Biso   1.000  C  0.628522
  C26      1.0000 0.12062  0.70803  0.95352  Biso   1.000  C  -0.430595
  C27      1.0000 0.02831  0.75568  0.89598  Biso   1.000  C  0.279979
  C28      1.0000 0.05780  0.74143  0.81580  Biso   1.000  C  -0.421886
  C29      1.0000 0.98567  0.79440  0.75616  Biso   1.000  C  0.666739
  C30      1.0000 0.91299  0.68724  0.86406  Biso   1.000  C  0.547048
  C31      1.0000 0.93046  0.33086  0.02670  Biso   1.000  C  0.631104
  C32      1.0000 0.83290  0.24549  0.95352  Biso   1.000  C  -0.429312
  C33      1.0000 0.86767  0.14030  0.89598  Biso   1.000  C  0.279552
  C34      1.0000 0.75800  0.07437  0.81580  Biso   1.000  C  -0.425550
  C35      1.0000 0.77049  0.96176  0.75616  Biso   1.000  C  0.668774
  C36      1.0000 0.95107  0.17682  0.86406  Biso   1.000  C  0.547412
  C37      1.0000 0.66914  0.90376  0.97330  Biso   1.000  C  0.627420
  C38      1.0000 0.75451  0.87938  0.04648  Biso   1.000  C  -0.427784
  C39      1.0000 0.85970  0.97169  0.10402  Biso   1.000  C  0.277026
  C40      1.0000 0.92563  0.94220  0.18420  Biso   1.000  C  -0.421645
  C41      1.0000 0.03824  0.01433  0.24384  Biso   1.000  C  0.668015
  C42      1.0000 0.82318  0.08701  0.13594  Biso   1.000  C  0.548029
  C43      1.0000 0.30416  0.06954  0.97330  Biso   1.000  C  0.626776
  C44      1.0000 0.29197  0.16710  0.04648  Biso   1.000  C  -0.426607
  C45      1.0000 0.24432  0.13233  0.10402  Biso   1.000  C  0.272469
  C46      1.0000 0.25857  0.24200  0.18420  Biso   1.000  C  -0.421691
  C47      1.0000 0.20560  0.22951  0.24384  Biso   1.000  C  0.668648
  C48      1.0000 0.31276  0.04893  0.13594  Biso   1.000  C  0.548809
  Co1      1.0000 0.25915  0.81433  0.41934  Biso   1.000  Co  0.849300
  Co2      1.0000 0.16019  0.60501  0.41934  Biso   1.000  Co  0.848786
  Co3      1.0000 0.18567  0.83981  0.58066  Biso   1.000  Co  0.849793
  Co4      1.0000 0.39499  0.74085  0.58066  Biso   1.000  Co  0.848904
  Co5      1.0000 0.08981  0.93567  0.08066  Biso   1.000  Co  0.849789
  Co6      1.0000 0.99085  0.14499  0.08066  Biso   1.000  Co  0.848907
  Co7      1.0000 0.85501  0.91019  0.91934  Biso   1.000  Co  0.848785
  Co8      1.0000 0.06433  0.00915  0.91934  Biso   1.000  Co  0.849303
  Co9      1.0000 0.19213  0.19213  0.38426  Biso   1.000  Co  0.957730
  Co10     1.0000 0.80787  0.80787  0.61574  Biso   1.000  Co  0.959315
  Co11     1.0000 0.05787  0.55787  0.11574  Biso   1.000  Co  0.959315
  Co12     1.0000 0.44213  0.94213  0.88426  Biso   1.000  Co  0.957730
  H1       1.0000 0.46330  0.11510  0.58420  Biso   1.000  H  0.153283
  H2       1.0000 0.46280  0.99250  0.52100  Biso   1.000  H  0.169591
  H3       1.0000 0.54850  0.97580  0.66260  Biso   1.000  H  0.169367
  H4       1.0000 0.51940  0.08840  0.71860  Biso   1.000  H  0.140493
  H5       1.0000 0.28547  0.20429  0.69276  Biso   1.000  H  0.438439
  H6       1.0000 0.12090  0.46910  0.58420  Biso   1.000  H  0.152293
  H7       1.0000 0.05820  0.52850  0.52100  Biso   1.000  H  0.170357
  H8       1.0000 0.11410  0.68680  0.66260  Biso   1.000  H  0.169333
  H9       1.0000 0.19920  0.63020  0.71860  Biso   1.000  H  0.140632
  H10      1.0000 0.40729  0.48847  0.69276  Biso   1.000  H  0.435883
  H11      1.0000 0.88490  0.87910  0.41580  Biso   1.000  H  0.153131
  H12      1.0000 0.00750  0.94180  0.47900  Biso   1.000  H  0.171080
  H13      1.0000 0.02420  0.88590  0.33740  Biso   1.000  H  0.168841
  H14      1.0000 0.91160  0.80080  0.28140  Biso   1.000  H  0.139971
  H15      1.0000 0.79571  0.59271  0.30724  Biso   1.000  H  0.438517
  H16      1.0000 0.53090  0.53670  0.41580  Biso   1.000  H  0.152807
  H17      1.0000 0.47150  0.53720  0.47900  Biso   1.000  H  0.170560
  H18      1.0000 0.31320  0.45150  0.33740  Biso   1.000  H  0.170602
  H19      1.0000 0.36980  0.48060  0.28140  Biso   1.000  H  0.140471
  H20      1.0000 0.51153  0.71453  0.30724  Biso   1.000  H  0.437005
  H21      1.0000 0.12910  0.63490  0.91580  Biso   1.000  H  0.153131
  H22      1.0000 0.19180  0.75750  0.97900  Biso   1.000  H  0.171081
  H23      1.0000 0.13590  0.77420  0.83740  Biso   1.000  H  0.168841
  H24      1.0000 0.05080  0.66160  0.78140  Biso   1.000  H  0.139971
  H25      1.0000 0.84271  0.54571  0.80724  Biso   1.000  H  0.438518
  H26      1.0000 0.78670  0.28090  0.91580  Biso   1.000  H  0.152808
  H27      1.0000 0.78720  0.22150  0.97900  Biso   1.000  H  0.170560
  H28      1.0000 0.70150  0.06320  0.83740  Biso   1.000  H  0.170602
  H29      1.0000 0.73060  0.11980  0.78140  Biso   1.000  H  0.140472
  H30      1.0000 0.96453  0.26153  0.80724  Biso   1.000  H  0.437005
  H31      1.0000 0.71910  0.87090  0.08420  Biso   1.000  H  0.152293
  H32      1.0000 0.77850  0.80820  0.02100  Biso   1.000  H  0.170358
  H33      1.0000 0.93680  0.86410  0.16260  Biso   1.000  H  0.169333
  H34      1.0000 0.88020  0.94920  0.21860  Biso   1.000  H  0.140632
  H35      1.0000 0.73847  0.15729  0.19276  Biso   1.000  H  0.435884
  H36      1.0000 0.36510  0.21330  0.08420  Biso   1.000  H  0.153283
  H37      1.0000 0.24250  0.21280  0.02100  Biso   1.000  H  0.169591
  H38      1.0000 0.22580  0.29850  0.16260  Biso   1.000  H  0.169367
  H39      1.0000 0.33840  0.26940  0.21860  Biso   1.000  H  0.140494
  H40      1.0000 0.45429  0.03547  0.19276  Biso   1.000  H  0.438439
  K1       1.0000 0.12500  0.03959  0.75000  Biso   1.000  K  0.886899
  K2       1.0000 0.62500  0.71041  0.75000  Biso   1.000  K  0.886945
  K3       1.0000 0.96041  0.37500  0.25000  Biso   1.000  K  0.886949
  K4       1.0000 0.28959  0.87500  0.25000  Biso   1.000  K  0.886897
  O1       1.0000 0.24669  0.97093  0.41524  Biso   1.000  O  -0.576828
  O2       1.0000 0.31593  0.15220  0.47080  Biso   1.000  O  -0.594349
  O3       1.0000 0.46865  0.84974  0.71804  Biso   1.000  O  -0.639975
  O4       1.0000 0.47993  0.01942  0.81778  Biso   1.000  O  -0.576644
  O5       1.0000 0.20629  0.01108  0.62332  Biso   1.000  O  -0.587200
  O6       1.0000 0.32389  0.16869  0.67022  Biso   1.000  O  -0.495348
  O7       1.0000 0.33347  0.87840  0.55734  Biso   1.000  O  -0.641774
  O8       1.0000 0.16855  0.44431  0.41524  Biso   1.000  O  -0.579559
  O9       1.0000 0.15487  0.31860  0.47080  Biso   1.000  O  -0.592249
  O10      1.0000 0.24939  0.86830  0.71804  Biso   1.000  O  -0.641254
  O11      1.0000 0.33785  0.79836  0.81778  Biso   1.000  O  -0.574903
  O12      1.0000 0.41703  0.61224  0.62332  Biso   1.000  O  -0.588757
  O13      1.0000 0.34633  0.50153  0.67022  Biso   1.000  O  -0.490654
  O14      1.0000 0.22387  0.67894  0.55734  Biso   1.000  O  -0.642874
  O15      1.0000 0.02907  0.83145  0.58476  Biso   1.000  O  -0.578936
  O16      1.0000 0.84780  0.84513  0.52920  Biso   1.000  O  -0.593786
  O17      1.0000 0.15026  0.75061  0.28196  Biso   1.000  O  -0.641453
  O18      1.0000 0.98058  0.66215  0.18222  Biso   1.000  O  -0.573197
  O19      1.0000 0.98892  0.58297  0.37668  Biso   1.000  O  -0.587792
  O20      1.0000 0.83131  0.65367  0.32978  Biso   1.000  O  -0.494248
  O21      1.0000 0.12160  0.77613  0.44266  Biso   1.000  O  -0.643789
  O22      1.0000 0.55569  0.75331  0.58476  Biso   1.000  O  -0.579796
  O23      1.0000 0.68140  0.68407  0.52920  Biso   1.000  O  -0.595554
  O24      1.0000 0.13170  0.53135  0.28196  Biso   1.000  O  -0.641376
  O25      1.0000 0.20164  0.52007  0.18222  Biso   1.000  O  -0.575241
  O26      1.0000 0.38776  0.79371  0.37668  Biso   1.000  O  -0.588665
  O27      1.0000 0.49847  0.67611  0.32978  Biso   1.000  O  -0.492194
  O28      1.0000 0.32106  0.66653  0.44266  Biso   1.000  O  -0.643194
  O29      1.0000 0.08145  0.77907  0.08476  Biso   1.000  O  -0.578935
  O30      1.0000 0.09513  0.59780  0.02920  Biso   1.000  O  -0.593787
  O31      1.0000 0.00061  0.90026  0.78196  Biso   1.000  O  -0.641454
  O32      1.0000 0.91215  0.73058  0.68222  Biso   1.000  O  -0.573197
  O33      1.0000 0.83297  0.73892  0.87668  Biso   1.000  O  -0.587791
  O34      1.0000 0.90367  0.58131  0.82978  Biso   1.000  O  -0.494247
  O35      1.0000 0.02613  0.87160  0.94266  Biso   1.000  O  -0.643789
  O36      1.0000 0.00331  0.30569  0.08476  Biso   1.000  O  -0.579797
  O37      1.0000 0.93407  0.43140  0.02920  Biso   1.000  O  -0.595554
  O38      1.0000 0.78135  0.88170  0.78196  Biso   1.000  O  -0.641376
  O39      1.0000 0.77007  0.95164  0.68222  Biso   1.000  O  -0.575241
  O40      1.0000 0.04371  0.13776  0.87668  Biso   1.000  O  -0.588665
  O41      1.0000 0.92611  0.24847  0.82978  Biso   1.000  O  -0.492193
  O42      1.0000 0.91653  0.07106  0.94266  Biso   1.000  O  -0.643194
  O43      1.0000 0.69431  0.91855  0.91524  Biso   1.000  O  -0.579559
  O44      1.0000 0.56860  0.90487  0.97080  Biso   1.000  O  -0.592249
  O45      1.0000 0.11830  0.99939  0.21804  Biso   1.000  O  -0.641253
  O46      1.0000 0.04836  0.08785  0.31778  Biso   1.000  O  -0.574903
  O47      1.0000 0.86224  0.16703  0.12332  Biso   1.000  O  -0.588760
  O48      1.0000 0.75153  0.09633  0.17022  Biso   1.000  O  -0.490655
  O49      1.0000 0.92894  0.97387  0.05734  Biso   1.000  O  -0.642872
  O50      1.0000 0.22093  0.99669  0.91524  Biso   1.000  O  -0.576828
  O51      1.0000 0.40220  0.06593  0.97080  Biso   1.000  O  -0.594348
  O52      1.0000 0.09974  0.21865  0.21804  Biso   1.000  O  -0.639976
  O53      1.0000 0.26942  0.22993  0.31778  Biso   1.000  O  -0.576645
  O54      1.0000 0.26108  0.95629  0.12332  Biso   1.000  O  -0.587199
  O55      1.0000 0.41869  0.07389  0.17022  Biso   1.000  O  -0.495348
  O56      1.0000 0.12840  0.08347  0.05734  Biso   1.000  O  -0.641775
