data_image0
_cell_length_a       12.2473
_cell_length_b       25.914
_cell_length_c       25.9141
_cell_angle_alpha    90
_cell_angle_beta     90
_cell_angle_gamma    90

_symmetry_space_group_name_H-M    "P 1"
_symmetry_int_tables_number       1

loop_
  _symmetry_equiv_pos_as_xyz
  'x, y, z'

loop_
  _atom_site_label
  _atom_site_occupancy
  _atom_site_fract_x
  _atom_site_fract_y
  _atom_site_fract_z
  _atom_site_thermal_displace_type
  _atom_site_B_iso_or_equiv
  _atom_site_type_symbol
  _atom_site_charge
  C1       1.0000 0.87250  0.43678  0.04064  Biso   1.000  C  0.595150
  C2       1.0000 0.80860  0.39360  0.06434  Biso   1.000  C  0.011477
  C3       1.0000 0.84160  0.37160  0.11101  Biso   1.000  C  -0.149721
  C4       1.0000 0.78750  0.33023  0.13089  Biso   1.000  C  0.019292
  C5       1.0000 0.69940  0.30930  0.10532  Biso   1.000  C  -0.254794
  C6       1.0000 0.66620  0.33146  0.05876  Biso   1.000  C  0.276181
  C7       1.0000 0.72120  0.37290  0.03974  Biso   1.000  C  -0.221385
  C8       1.0000 0.83210  0.30420  0.17974  Biso   1.000  C  0.587626
  C9       1.0000 0.53090  0.26800  0.04503  Biso   1.000  C  -0.069413
  C10      1.0000 0.38600  0.29527  0.98347  Biso   1.000  C  -0.070250
  C11      1.0000 0.24210  0.30640  0.92259  Biso   1.000  C  0.271894
  C12      1.0000 0.18660  0.28640  0.88059  Biso   1.000  C  -0.222102
  C13      1.0000 0.09480  0.31160  0.86125  Biso   1.000  C  0.007617
  C14      1.0000 0.06000  0.35810  0.88245  Biso   1.000  C  -0.150991
  C15      1.0000 0.11850  0.37861  0.92457  Biso   1.000  C  0.006251
  C16      1.0000 0.20860  0.35300  0.94442  Biso   1.000  C  -0.247514
  C17      1.0000 0.03430  0.28600  0.81902  Biso   1.000  C  0.602584
  C18      1.0000 0.07800  0.42677  0.94975  Biso   1.000  C  0.604914
  C19      1.0000 0.12750  0.56322  0.54064  Biso   1.000  C  0.593879
  C20      1.0000 0.19140  0.60640  0.56434  Biso   1.000  C  0.014792
  C21      1.0000 0.15840  0.62840  0.61101  Biso   1.000  C  -0.150204
  C22      1.0000 0.21250  0.66977  0.63089  Biso   1.000  C  0.019670
  C23      1.0000 0.30060  0.69070  0.60532  Biso   1.000  C  -0.254584
  C24      1.0000 0.33380  0.66854  0.55876  Biso   1.000  C  0.276396
  C25      1.0000 0.27880  0.62710  0.53974  Biso   1.000  C  -0.222042
  C26      1.0000 0.16790  0.69580  0.67974  Biso   1.000  C  0.587603
  C27      1.0000 0.46910  0.73200  0.54503  Biso   1.000  C  -0.069403
  C28      1.0000 0.61400  0.70473  0.48347  Biso   1.000  C  -0.070293
  C29      1.0000 0.75790  0.69360  0.42259  Biso   1.000  C  0.271899
  C30      1.0000 0.81340  0.71360  0.38059  Biso   1.000  C  -0.220888
  C31      1.0000 0.90520  0.68840  0.36125  Biso   1.000  C  0.004669
  C32      1.0000 0.94000  0.64190  0.38245  Biso   1.000  C  -0.151188
  C33      1.0000 0.88150  0.62139  0.42457  Biso   1.000  C  0.009562
  C34      1.0000 0.79140  0.64700  0.44442  Biso   1.000  C  -0.248045
  C35      1.0000 0.96570  0.71400  0.31902  Biso   1.000  C  0.603768
  C36      1.0000 0.92200  0.57323  0.44975  Biso   1.000  C  0.603731
  C37      1.0000 0.12750  0.93678  0.45936  Biso   1.000  C  0.590513
  C38      1.0000 0.19140  0.89360  0.43566  Biso   1.000  C  0.017643
  C39      1.0000 0.15840  0.87160  0.38899  Biso   1.000  C  -0.150073
  C40      1.0000 0.21250  0.83023  0.36911  Biso   1.000  C  0.016398
  C41      1.0000 0.30060  0.80930  0.39468  Biso   1.000  C  -0.254088
  C42      1.0000 0.33380  0.83146  0.44124  Biso   1.000  C  0.276452
  C43      1.0000 0.27880  0.87290  0.46026  Biso   1.000  C  -0.223123
  C44      1.0000 0.16790  0.80420  0.32026  Biso   1.000  C  0.588734
  C45      1.0000 0.46910  0.76800  0.45497  Biso   1.000  C  -0.069355
  C46      1.0000 0.61400  0.79527  0.51653  Biso   1.000  C  -0.070243
  C47      1.0000 0.75790  0.80640  0.57741  Biso   1.000  C  0.272546
  C48      1.0000 0.81340  0.78640  0.61941  Biso   1.000  C  -0.221254
  C49      1.0000 0.90520  0.81160  0.63875  Biso   1.000  C  0.008517
  C50      1.0000 0.94000  0.85810  0.61755  Biso   1.000  C  -0.151833
  C51      1.0000 0.88150  0.87861  0.57543  Biso   1.000  C  0.013144
  C52      1.0000 0.79140  0.85300  0.55558  Biso   1.000  C  -0.248608
  C53      1.0000 0.96570  0.78600  0.68098  Biso   1.000  C  0.602540
  C54      1.0000 0.92200  0.92677  0.55025  Biso   1.000  C  0.600633
  C55      1.0000 0.87250  0.06322  0.95936  Biso   1.000  C  0.593841
  C56      1.0000 0.80860  0.10640  0.93566  Biso   1.000  C  0.014841
  C57      1.0000 0.84160  0.12840  0.88899  Biso   1.000  C  -0.150222
  C58      1.0000 0.78750  0.16977  0.86911  Biso   1.000  C  0.019582
  C59      1.0000 0.69940  0.19070  0.89468  Biso   1.000  C  -0.254639
  C60      1.0000 0.66620  0.16854  0.94124  Biso   1.000  C  0.276430
  C61      1.0000 0.72120  0.12710  0.96026  Biso   1.000  C  -0.221931
  C62      1.0000 0.83210  0.19580  0.82026  Biso   1.000  C  0.587655
  C63      1.0000 0.53090  0.23200  0.95497  Biso   1.000  C  -0.069372
  C64      1.0000 0.38600  0.20473  0.01653  Biso   1.000  C  -0.070236
  C65      1.0000 0.24210  0.19360  0.07741  Biso   1.000  C  0.272186
  C66      1.0000 0.18660  0.21360  0.11941  Biso   1.000  C  -0.221849
  C67      1.0000 0.09480  0.18840  0.13875  Biso   1.000  C  0.007866
  C68      1.0000 0.06000  0.14190  0.11755  Biso   1.000  C  -0.151372
  C69      1.0000 0.11850  0.12139  0.07543  Biso   1.000  C  0.009814
  C70      1.0000 0.20860  0.14700  0.05558  Biso   1.000  C  -0.247885
  C71      1.0000 0.03430  0.21400  0.18098  Biso   1.000  C  0.602592
  C72      1.0000 0.07800  0.07323  0.05025  Biso   1.000  C  0.603762
  C73      1.0000 0.12750  0.56322  0.95936  Biso   1.000  C  0.595168
  C74      1.0000 0.19140  0.60640  0.93566  Biso   1.000  C  0.011442
  C75      1.0000 0.15840  0.62840  0.88899  Biso   1.000  C  -0.149695
  C76      1.0000 0.21250  0.66977  0.86911  Biso   1.000  C  0.019306
  C77      1.0000 0.30060  0.69070  0.89468  Biso   1.000  C  -0.254721
  C78      1.0000 0.33380  0.66854  0.94124  Biso   1.000  C  0.276212
  C79      1.0000 0.27880  0.62710  0.96026  Biso   1.000  C  -0.221442
  C80      1.0000 0.16790  0.69580  0.82026  Biso   1.000  C  0.587628
  C81      1.0000 0.46910  0.73200  0.95497  Biso   1.000  C  -0.069378
  C82      1.0000 0.61400  0.70473  0.01653  Biso   1.000  C  -0.070266
  C83      1.0000 0.75790  0.69360  0.07741  Biso   1.000  C  0.271725
  C84      1.0000 0.81340  0.71360  0.11941  Biso   1.000  C  -0.221209
  C85      1.0000 0.90520  0.68840  0.13875  Biso   1.000  C  0.004237
  C86      1.0000 0.94000  0.64190  0.11755  Biso   1.000  C  -0.150802
  C87      1.0000 0.88150  0.62139  0.07543  Biso   1.000  C  0.006112
  C88      1.0000 0.79140  0.64700  0.05558  Biso   1.000  C  -0.247430
  C89      1.0000 0.96570  0.71400  0.18098  Biso   1.000  C  0.603794
  C90      1.0000 0.92200  0.57323  0.05025  Biso   1.000  C  0.604837
  C91      1.0000 0.87250  0.43678  0.45936  Biso   1.000  C  0.593871
  C92      1.0000 0.80860  0.39360  0.43566  Biso   1.000  C  0.014810
  C93      1.0000 0.84160  0.37160  0.38899  Biso   1.000  C  -0.150236
  C94      1.0000 0.78750  0.33023  0.36911  Biso   1.000  C  0.019641
  C95      1.0000 0.69940  0.30930  0.39468  Biso   1.000  C  -0.254662
  C96      1.0000 0.66620  0.33146  0.44124  Biso   1.000  C  0.276360
  C97      1.0000 0.72120  0.37290  0.46026  Biso   1.000  C  -0.222008
  C98      1.0000 0.83210  0.30420  0.32026  Biso   1.000  C  0.587613
  C99      1.0000 0.53090  0.26800  0.45497  Biso   1.000  C  -0.069434
  C100     1.0000 0.38600  0.29527  0.51653  Biso   1.000  C  -0.070277
  C101     1.0000 0.24210  0.30640  0.57741  Biso   1.000  C  0.272083
  C102     1.0000 0.18660  0.28640  0.61941  Biso   1.000  C  -0.221766
  C103     1.0000 0.09480  0.31160  0.63875  Biso   1.000  C  0.008054
  C104     1.0000 0.06000  0.35810  0.61755  Biso   1.000  C  -0.151356
  C105     1.0000 0.11850  0.37861  0.57543  Biso   1.000  C  0.009709
  C106     1.0000 0.20860  0.35300  0.55558  Biso   1.000  C  -0.248111
  C107     1.0000 0.03430  0.28600  0.68098  Biso   1.000  C  0.602536
  C108     1.0000 0.07800  0.42677  0.55025  Biso   1.000  C  0.603784
  C109     1.0000 0.87250  0.06322  0.54064  Biso   1.000  C  0.590470
  C110     1.0000 0.80860  0.10640  0.56434  Biso   1.000  C  0.018106
  C111     1.0000 0.84160  0.12840  0.61101  Biso   1.000  C  -0.150830
  C112     1.0000 0.78750  0.16977  0.63089  Biso   1.000  C  0.020145
  C113     1.0000 0.69940  0.19070  0.60532  Biso   1.000  C  -0.254256
  C114     1.0000 0.66620  0.16854  0.55876  Biso   1.000  C  0.276767
  C115     1.0000 0.72120  0.12710  0.53974  Biso   1.000  C  -0.222649
  C116     1.0000 0.83210  0.19580  0.67974  Biso   1.000  C  0.587634
  C117     1.0000 0.53090  0.23200  0.54503  Biso   1.000  C  -0.069377
  C118     1.0000 0.38600  0.20473  0.48347  Biso   1.000  C  -0.070272
  C119     1.0000 0.24210  0.19360  0.42259  Biso   1.000  C  0.272530
  C120     1.0000 0.18660  0.21360  0.38059  Biso   1.000  C  -0.221270
  C121     1.0000 0.09480  0.18840  0.36125  Biso   1.000  C  0.008516
  C122     1.0000 0.06000  0.14190  0.38245  Biso   1.000  C  -0.151819
  C123     1.0000 0.11850  0.12139  0.42457  Biso   1.000  C  0.013173
  C124     1.0000 0.20860  0.14700  0.44442  Biso   1.000  C  -0.248615
  C125     1.0000 0.03430  0.21400  0.31902  Biso   1.000  C  0.602545
  C126     1.0000 0.07800  0.07323  0.44975  Biso   1.000  C  0.600627
  C127     1.0000 0.12750  0.93678  0.04064  Biso   1.000  C  0.593893
  C128     1.0000 0.19140  0.89360  0.06434  Biso   1.000  C  0.014355
  C129     1.0000 0.15840  0.87160  0.11101  Biso   1.000  C  -0.149488
  C130     1.0000 0.21250  0.83023  0.13089  Biso   1.000  C  0.015773
  C131     1.0000 0.30060  0.80930  0.10532  Biso   1.000  C  -0.254486
  C132     1.0000 0.33380  0.83146  0.05876  Biso   1.000  C  0.276102
  C133     1.0000 0.27880  0.87290  0.03974  Biso   1.000  C  -0.222417
  C134     1.0000 0.16790  0.80420  0.17974  Biso   1.000  C  0.588742
  C135     1.0000 0.46910  0.76800  0.04503  Biso   1.000  C  -0.069351
  C136     1.0000 0.61400  0.79527  0.98347  Biso   1.000  C  -0.070207
  C137     1.0000 0.75790  0.80640  0.92259  Biso   1.000  C  0.272192
  C138     1.0000 0.81340  0.78640  0.88059  Biso   1.000  C  -0.221843
  C139     1.0000 0.90520  0.81160  0.86125  Biso   1.000  C  0.007860
  C140     1.0000 0.94000  0.85810  0.88245  Biso   1.000  C  -0.151406
  C141     1.0000 0.88150  0.87861  0.92457  Biso   1.000  C  0.009768
  C142     1.0000 0.79140  0.85300  0.94442  Biso   1.000  C  -0.247883
  C143     1.0000 0.96570  0.78600  0.81902  Biso   1.000  C  0.602607
  C144     1.0000 0.92200  0.92677  0.94975  Biso   1.000  C  0.603782
  C145     1.0000 0.45770  0.25000  0.00000  Biso   1.000  C  0.078341
  C146     1.0000 0.54230  0.75000  0.50000  Biso   1.000  C  0.078341
  C147     1.0000 0.54230  0.75000  0.00000  Biso   1.000  C  0.078334
  C148     1.0000 0.45770  0.25000  0.50000  Biso   1.000  C  0.078348
  Cu1      1.0000 0.92589  0.50601  0.96326  Biso   1.000  Cu  0.877462
  Cu2      1.0000 0.07411  0.49399  0.46326  Biso   1.000  Cu  0.869345
  Cu3      1.0000 0.07411  0.00601  0.53674  Biso   1.000  Cu  0.844945
  Cu4      1.0000 0.92589  0.99399  0.03674  Biso   1.000  Cu  0.869458
  Cu5      1.0000 0.07411  0.49399  0.03674  Biso   1.000  Cu  0.877773
  Cu6      1.0000 0.92589  0.50601  0.53674  Biso   1.000  Cu  0.869612
  Cu7      1.0000 0.92589  0.99399  0.46326  Biso   1.000  Cu  0.844999
  Cu8      1.0000 0.07411  0.00601  0.96326  Biso   1.000  Cu  0.869426
  Cu9      1.0000 0.00464  0.29705  0.25000  Biso   1.000  Cu  0.890736
  Cu10     1.0000 0.85425  0.22377  0.25000  Biso   1.000  Cu  0.839605
  Cu11     1.0000 0.99536  0.70295  0.75000  Biso   1.000  Cu  0.890881
  Cu12     1.0000 0.14575  0.77623  0.75000  Biso   1.000  Cu  0.839438
  Cu13     1.0000 0.99536  0.79705  0.25000  Biso   1.000  Cu  0.892125
  Cu14     1.0000 0.14575  0.72377  0.25000  Biso   1.000  Cu  0.856147
  Cu15     1.0000 0.00464  0.20295  0.75000  Biso   1.000  Cu  0.890976
  Cu16     1.0000 0.85425  0.27623  0.75000  Biso   1.000  Cu  0.839403
  H1       1.0000 0.90230  0.38560  0.12900  Biso   1.000  H  0.133800
  H2       1.0000 0.66190  0.28030  0.11910  Biso   1.000  H  0.134543
  H3       1.0000 0.69770  0.38780  0.00820  Biso   1.000  H  0.139191
  H4       1.0000 0.48580  0.27500  0.07600  Biso   1.000  H  0.097350
  H5       1.0000 0.58470  0.24090  0.05370  Biso   1.000  H  0.097548
  H6       1.0000 0.33590  0.30530  0.01170  Biso   1.000  H  0.102309
  H7       1.0000 0.43150  0.32540  0.97420  Biso   1.000  H  0.100705
  H8       1.0000 0.21120  0.25540  0.86490  Biso   1.000  H  0.143409
  H9       1.0000 0.99820  0.37560  0.86890  Biso   1.000  H  0.138982
  H10      1.0000 0.24750  0.36720  0.97280  Biso   1.000  H  0.137367
  H11      1.0000 0.09770  0.61440  0.62900  Biso   1.000  H  0.134138
  H12      1.0000 0.33810  0.71970  0.61910  Biso   1.000  H  0.134637
  H13      1.0000 0.30230  0.61220  0.50820  Biso   1.000  H  0.139470
  H14      1.0000 0.51420  0.72500  0.57600  Biso   1.000  H  0.097399
  H15      1.0000 0.41530  0.75910  0.55370  Biso   1.000  H  0.097598
  H16      1.0000 0.66410  0.69470  0.51170  Biso   1.000  H  0.102362
  H17      1.0000 0.56850  0.67460  0.47420  Biso   1.000  H  0.100775
  H18      1.0000 0.78880  0.74460  0.36490  Biso   1.000  H  0.143410
  H19      1.0000 0.00180  0.62440  0.36890  Biso   1.000  H  0.139005
  H20      1.0000 0.75250  0.63280  0.47280  Biso   1.000  H  0.137674
  H21      1.0000 0.09770  0.88560  0.37100  Biso   1.000  H  0.134117
  H22      1.0000 0.33810  0.78030  0.38090  Biso   1.000  H  0.134261
  H23      1.0000 0.30230  0.88780  0.49180  Biso   1.000  H  0.139673
  H24      1.0000 0.51420  0.77500  0.42400  Biso   1.000  H  0.097418
  H25      1.0000 0.41530  0.74090  0.44630  Biso   1.000  H  0.097490
  H26      1.0000 0.66410  0.80530  0.48830  Biso   1.000  H  0.102496
  H27      1.0000 0.56850  0.82540  0.52580  Biso   1.000  H  0.100861
  H28      1.0000 0.78880  0.75540  0.63510  Biso   1.000  H  0.143723
  H29      1.0000 0.00180  0.87560  0.63110  Biso   1.000  H  0.139718
  H30      1.0000 0.75250  0.86720  0.52720  Biso   1.000  H  0.138066
  H31      1.0000 0.90230  0.11440  0.87100  Biso   1.000  H  0.134117
  H32      1.0000 0.66190  0.21970  0.88090  Biso   1.000  H  0.134611
  H33      1.0000 0.69770  0.11220  0.99180  Biso   1.000  H  0.139528
  H34      1.0000 0.48580  0.22500  0.92400  Biso   1.000  H  0.097417
  H35      1.0000 0.58470  0.25910  0.94630  Biso   1.000  H  0.097566
  H36      1.0000 0.33590  0.19470  0.98830  Biso   1.000  H  0.102422
  H37      1.0000 0.43150  0.17460  0.02580  Biso   1.000  H  0.100757
  H38      1.0000 0.21120  0.24460  0.13510  Biso   1.000  H  0.143479
  H39      1.0000 0.99820  0.12440  0.13110  Biso   1.000  H  0.139343
  H40      1.0000 0.24750  0.13280  0.02720  Biso   1.000  H  0.137750
  H41      1.0000 0.09770  0.61440  0.87100  Biso   1.000  H  0.133815
  H42      1.0000 0.33810  0.71970  0.88090  Biso   1.000  H  0.134558
  H43      1.0000 0.30230  0.61220  0.99180  Biso   1.000  H  0.139129
  H44      1.0000 0.51420  0.72500  0.92400  Biso   1.000  H  0.097313
  H45      1.0000 0.41530  0.75910  0.94630  Biso   1.000  H  0.097587
  H46      1.0000 0.66410  0.69470  0.98830  Biso   1.000  H  0.102296
  H47      1.0000 0.56850  0.67460  0.02580  Biso   1.000  H  0.100653
  H48      1.0000 0.78880  0.74460  0.13510  Biso   1.000  H  0.143259
  H49      1.0000 0.00180  0.62440  0.13110  Biso   1.000  H  0.138626
  H50      1.0000 0.75250  0.63280  0.02720  Biso   1.000  H  0.137373
  H51      1.0000 0.90230  0.38560  0.37100  Biso   1.000  H  0.134124
  H52      1.0000 0.66190  0.28030  0.38090  Biso   1.000  H  0.134618
  H53      1.0000 0.69770  0.38780  0.49180  Biso   1.000  H  0.139520
  H54      1.0000 0.48580  0.27500  0.42400  Biso   1.000  H  0.097432
  H55      1.0000 0.58470  0.24090  0.44630  Biso   1.000  H  0.097563
  H56      1.0000 0.33590  0.30530  0.48830  Biso   1.000  H  0.102378
  H57      1.0000 0.43150  0.32540  0.52580  Biso   1.000  H  0.100827
  H58      1.0000 0.21120  0.25540  0.63510  Biso   1.000  H  0.143568
  H59      1.0000 0.99820  0.37560  0.63110  Biso   1.000  H  0.139364
  H60      1.0000 0.24750  0.36720  0.52720  Biso   1.000  H  0.137679
  H61      1.0000 0.90230  0.11440  0.62900  Biso   1.000  H  0.134446
  H62      1.0000 0.66190  0.21970  0.61910  Biso   1.000  H  0.134770
  H63      1.0000 0.69770  0.11220  0.50820  Biso   1.000  H  0.139863
  H64      1.0000 0.48580  0.22500  0.57600  Biso   1.000  H  0.097516
  H65      1.0000 0.58470  0.25910  0.55370  Biso   1.000  H  0.097631
  H66      1.0000 0.33590  0.19470  0.51170  Biso   1.000  H  0.102494
  H67      1.0000 0.43150  0.17460  0.47420  Biso   1.000  H  0.100843
  H68      1.0000 0.21120  0.24460  0.36490  Biso   1.000  H  0.143715
  H69      1.0000 0.99820  0.12440  0.36890  Biso   1.000  H  0.139730
  H70      1.0000 0.24750  0.13280  0.47280  Biso   1.000  H  0.138059
  H71      1.0000 0.09770  0.88560  0.12900  Biso   1.000  H  0.133779
  H72      1.0000 0.33810  0.78030  0.11910  Biso   1.000  H  0.134088
  H73      1.0000 0.30230  0.88780  0.00820  Biso   1.000  H  0.139327
  H74      1.0000 0.51420  0.77500  0.07600  Biso   1.000  H  0.097312
  H75      1.0000 0.41530  0.74090  0.05370  Biso   1.000  H  0.097421
  H76      1.0000 0.66410  0.80530  0.01170  Biso   1.000  H  0.102420
  H77      1.0000 0.56850  0.82540  0.97420  Biso   1.000  H  0.100776
  H78      1.0000 0.78880  0.75540  0.86490  Biso   1.000  H  0.143480
  H79      1.0000 0.00180  0.87560  0.86890  Biso   1.000  H  0.139327
  H80      1.0000 0.75250  0.86720  0.97280  Biso   1.000  H  0.137751
  O1       1.0000 0.83700  0.45629  0.99993  Biso   1.000  O  -0.516368
  O2       1.0000 0.96290  0.44782  0.06270  Biso   1.000  O  -0.540704
  O3       1.0000 0.91700  0.32680  0.19778  Biso   1.000  O  -0.527743
  O4       1.0000 0.78330  0.26546  0.19596  Biso   1.000  O  -0.506053
  O5       1.0000 0.58490  0.31328  0.02930  Biso   1.000  O  -0.191207
  O6       1.0000 0.32560  0.27763  0.93969  Biso   1.000  O  -0.194478
  O7       1.0000 0.12460  0.43912  0.99101  Biso   1.000  O  -0.541975
  O8       1.0000 0.99810  0.44841  0.92930  Biso   1.000  O  -0.518589
  O9       1.0000 0.94710  0.30736  0.80307  Biso   1.000  O  -0.537267
  O10      1.0000 0.07210  0.24487  0.80191  Biso   1.000  O  -0.531945
  O11      1.0000 0.16300  0.54371  0.49993  Biso   1.000  O  -0.515496
  O12      1.0000 0.03710  0.55218  0.56270  Biso   1.000  O  -0.540125
  O13      1.0000 0.08300  0.67320  0.69778  Biso   1.000  O  -0.527771
  O14      1.0000 0.21670  0.73454  0.69596  Biso   1.000  O  -0.506208
  O15      1.0000 0.41510  0.68672  0.52930  Biso   1.000  O  -0.191153
  O16      1.0000 0.67440  0.72237  0.43969  Biso   1.000  O  -0.194351
  O17      1.0000 0.87540  0.56088  0.49101  Biso   1.000  O  -0.540498
  O18      1.0000 0.00190  0.55159  0.42930  Biso   1.000  O  -0.517331
  O19      1.0000 0.05290  0.69264  0.30307  Biso   1.000  O  -0.535492
  O20      1.0000 0.92790  0.75513  0.30191  Biso   1.000  O  -0.533172
  O21      1.0000 0.16300  0.95629  0.50007  Biso   1.000  O  -0.509235
  O22      1.0000 0.03710  0.94782  0.43730  Biso   1.000  O  -0.533967
  O23      1.0000 0.08300  0.82680  0.30222  Biso   1.000  O  -0.530653
  O24      1.0000 0.21670  0.76546  0.30404  Biso   1.000  O  -0.507852
  O25      1.0000 0.41510  0.81328  0.47070  Biso   1.000  O  -0.191321
  O26      1.0000 0.67440  0.77763  0.56031  Biso   1.000  O  -0.194041
  O27      1.0000 0.87540  0.93912  0.50899  Biso   1.000  O  -0.533470
  O28      1.0000 0.00190  0.94841  0.57070  Biso   1.000  O  -0.510401
  O29      1.0000 0.05290  0.80736  0.69693  Biso   1.000  O  -0.537249
  O30      1.0000 0.92790  0.74487  0.69809  Biso   1.000  O  -0.531973
  O31      1.0000 0.83700  0.04371  0.00007  Biso   1.000  O  -0.515526
  O32      1.0000 0.96290  0.05218  0.93730  Biso   1.000  O  -0.540274
  O33      1.0000 0.91700  0.17320  0.80222  Biso   1.000  O  -0.527673
  O34      1.0000 0.78330  0.23454  0.80404  Biso   1.000  O  -0.506167
  O35      1.0000 0.58490  0.18672  0.97070  Biso   1.000  O  -0.191135
  O36      1.0000 0.32560  0.22237  0.06031  Biso   1.000  O  -0.194295
  O37      1.0000 0.12460  0.06088  0.00899  Biso   1.000  O  -0.540397
  O38      1.0000 0.99810  0.05159  0.07070  Biso   1.000  O  -0.517142
  O39      1.0000 0.94710  0.19264  0.19693  Biso   1.000  O  -0.537138
  O40      1.0000 0.07210  0.25513  0.19809  Biso   1.000  O  -0.531926
  O41      1.0000 0.16300  0.54371  0.00007  Biso   1.000  O  -0.516418
  O42      1.0000 0.03710  0.55218  0.93730  Biso   1.000  O  -0.540640
  O43      1.0000 0.08300  0.67320  0.80222  Biso   1.000  O  -0.527738
  O44      1.0000 0.21670  0.73454  0.80404  Biso   1.000  O  -0.506038
  O45      1.0000 0.41510  0.68672  0.97070  Biso   1.000  O  -0.191217
  O46      1.0000 0.67440  0.72237  0.06031  Biso   1.000  O  -0.194459
  O47      1.0000 0.87540  0.56088  0.00899  Biso   1.000  O  -0.541793
  O48      1.0000 0.00190  0.55159  0.07070  Biso   1.000  O  -0.518724
  O49      1.0000 0.05290  0.69264  0.19693  Biso   1.000  O  -0.535382
  O50      1.0000 0.92790  0.75513  0.19809  Biso   1.000  O  -0.532946
  O51      1.0000 0.83700  0.45629  0.50007  Biso   1.000  O  -0.515519
  O52      1.0000 0.96290  0.44782  0.43730  Biso   1.000  O  -0.540239
  O53      1.0000 0.91700  0.32680  0.30222  Biso   1.000  O  -0.527818
  O54      1.0000 0.78330  0.26546  0.30404  Biso   1.000  O  -0.506299
  O55      1.0000 0.58490  0.31328  0.47070  Biso   1.000  O  -0.191153
  O56      1.0000 0.32560  0.27763  0.56031  Biso   1.000  O  -0.194354
  O57      1.0000 0.12460  0.43912  0.50899  Biso   1.000  O  -0.540542
  O58      1.0000 0.99810  0.44841  0.57070  Biso   1.000  O  -0.517109
  O59      1.0000 0.94710  0.30736  0.69693  Biso   1.000  O  -0.537352
  O60      1.0000 0.07210  0.24487  0.69809  Biso   1.000  O  -0.532028
  O61      1.0000 0.83700  0.04371  0.49993  Biso   1.000  O  -0.509321
  O62      1.0000 0.96290  0.05218  0.56270  Biso   1.000  O  -0.534084
  O63      1.0000 0.91700  0.17320  0.69778  Biso   1.000  O  -0.527689
  O64      1.0000 0.78330  0.23454  0.69596  Biso   1.000  O  -0.506263
  O65      1.0000 0.58490  0.18672  0.52930  Biso   1.000  O  -0.191030
  O66      1.0000 0.32560  0.22237  0.43969  Biso   1.000  O  -0.194028
  O67      1.0000 0.12460  0.06088  0.49101  Biso   1.000  O  -0.533510
  O68      1.0000 0.99810  0.05159  0.42930  Biso   1.000  O  -0.510391
  O69      1.0000 0.94710  0.19264  0.30307  Biso   1.000  O  -0.537225
  O70      1.0000 0.07210  0.25513  0.30191  Biso   1.000  O  -0.531956
  O71      1.0000 0.16300  0.95629  0.99993  Biso   1.000  O  -0.515567
  O72      1.0000 0.03710  0.94782  0.06270  Biso   1.000  O  -0.540229
  O73      1.0000 0.08300  0.82680  0.19778  Biso   1.000  O  -0.530623
  O74      1.0000 0.21670  0.76546  0.19596  Biso   1.000  O  -0.507847
  O75      1.0000 0.41510  0.81328  0.02930  Biso   1.000  O  -0.191431
  O76      1.0000 0.67440  0.77763  0.93969  Biso   1.000  O  -0.194314
  O77      1.0000 0.87540  0.93912  0.99101  Biso   1.000  O  -0.540435
  O78      1.0000 0.00190  0.94841  0.92930  Biso   1.000  O  -0.517199
  O79      1.0000 0.05290  0.80736  0.80307  Biso   1.000  O  -0.537213
  O80      1.0000 0.92790  0.74487  0.80191  Biso   1.000  O  -0.532026
