data_image0
_cell_length_a       11.392
_cell_length_b       18.743
_cell_length_c       24.386
_cell_angle_alpha    90
_cell_angle_beta     90
_cell_angle_gamma    90

_symmetry_space_group_name_H-M    "P 1"
_symmetry_int_tables_number       1

loop_
  _symmetry_equiv_pos_as_xyz
  'x, y, z'

loop_
  _atom_site_label
  _atom_site_occupancy
  _atom_site_fract_x
  _atom_site_fract_y
  _atom_site_fract_z
  _atom_site_thermal_displace_type
  _atom_site_B_iso_or_equiv
  _atom_site_type_symbol
  _atom_site_charge
  C1       1.0000 0.53500  0.38130  0.60300  Biso   1.000  C  0.578726
  C2       1.0000 0.53210  0.42980  0.65330  Biso   1.000  C  0.090145
  C3       1.0000 0.40630  0.44740  0.66780  Biso   1.000  C  -0.485602
  C4       1.0000 0.70600  0.38630  0.70240  Biso   1.000  C  0.482444
  C5       1.0000 0.75070  0.33960  0.74690  Biso   1.000  C  0.007033
  C6       1.0000 0.86190  0.35110  0.76850  Biso   1.000  C  -0.154651
  C7       1.0000 0.90670  0.30580  0.80730  Biso   1.000  C  -0.008736
  C8       1.0000 0.83980  0.24770  0.82740  Biso   1.000  C  -0.136271
  C9       1.0000 0.72710  0.23840  0.80730  Biso   1.000  C  -0.004234
  C10      1.0000 0.68220  0.28390  0.76700  Biso   1.000  C  -0.148420
  C11      1.0000 0.02880  0.31740  0.83160  Biso   1.000  C  0.487744
  C12      1.0000 0.24120  0.44850  0.81300  Biso   1.000  C  -0.500420
  C13      1.0000 0.22470  0.36700  0.81670  Biso   1.000  C  0.082051
  C14      1.0000 0.31780  0.32990  0.78150  Biso   1.000  C  0.571834
  C15      1.0000 0.65330  0.18010  0.83020  Biso   1.000  C  0.474126
  C16      1.0000 0.33400  0.14620  0.82910  Biso   1.000  C  -0.485150
  C17      1.0000 0.46030  0.13290  0.84700  Biso   1.000  C  0.075711
  C18      1.0000 0.46370  0.12580  0.90960  Biso   1.000  C  0.600294
  C19      1.0000 0.16230  0.26360  0.47950  Biso   1.000  C  -0.178295
  C20      1.0000 0.28240  0.26860  0.48010  Biso   1.000  C  0.093111
  C21      1.0000 0.28230  0.32220  0.56300  Biso   1.000  C  0.108414
  C22      1.0000 0.15860  0.32200  0.56570  Biso   1.000  C  -0.191474
  C23      1.0000 0.09770  0.29260  0.52110  Biso   1.000  C  0.112409
  C24      1.0000 0.96790  0.29440  0.52220  Biso   1.000  C  0.107465
  C25      1.0000 0.90570  0.28010  0.56720  Biso   1.000  C  -0.178454
  C26      1.0000 0.78180  0.28260  0.56640  Biso   1.000  C  0.100312
  C27      1.0000 0.78790  0.31490  0.47560  Biso   1.000  C  0.088703
  C28      1.0000 0.90610  0.31090  0.47270  Biso   1.000  C  -0.159279
  C29      1.0000 0.51510  0.14610  0.55350  Biso   1.000  C  0.099215
  C30      1.0000 0.51990  0.07270  0.55020  Biso   1.000  C  -0.185237
  C31      1.0000 0.54860  0.03890  0.50270  Biso   1.000  C  0.113822
  C32      1.0000 0.57370  0.08310  0.45890  Biso   1.000  C  -0.174423
  C33      1.0000 0.56880  0.15660  0.46570  Biso   1.000  C  0.104520
  C34      1.0000 0.78730  0.48940  0.54580  Biso   1.000  C  0.107791
  C35      1.0000 0.90600  0.49040  0.54770  Biso   1.000  C  -0.188431
  C36      1.0000 0.16740  0.53420  0.54000  Biso   1.000  C  -0.183449
  C37      1.0000 0.28780  0.53350  0.53910  Biso   1.000  C  0.098274
  C38      1.0000 0.53500  0.61870  0.39700  Biso   1.000  C  0.578726
  C39      1.0000 0.53210  0.57020  0.34670  Biso   1.000  C  0.090145
  C40      1.0000 0.40630  0.55260  0.33220  Biso   1.000  C  -0.485602
  C41      1.0000 0.70600  0.61370  0.29760  Biso   1.000  C  0.482444
  C42      1.0000 0.75070  0.66040  0.25310  Biso   1.000  C  0.007033
  C43      1.0000 0.86190  0.64890  0.23150  Biso   1.000  C  -0.154651
  C44      1.0000 0.90670  0.69420  0.19270  Biso   1.000  C  -0.008736
  C45      1.0000 0.83980  0.75230  0.17260  Biso   1.000  C  -0.136271
  C46      1.0000 0.72710  0.76160  0.19270  Biso   1.000  C  -0.004234
  C47      1.0000 0.68220  0.71610  0.23300  Biso   1.000  C  -0.148420
  C48      1.0000 0.02880  0.68260  0.16840  Biso   1.000  C  0.487744
  C49      1.0000 0.24120  0.55150  0.18700  Biso   1.000  C  -0.500420
  C50      1.0000 0.22470  0.63300  0.18330  Biso   1.000  C  0.082051
  C51      1.0000 0.31780  0.67010  0.21850  Biso   1.000  C  0.571834
  C52      1.0000 0.65330  0.81990  0.16980  Biso   1.000  C  0.474126
  C53      1.0000 0.33400  0.85380  0.17090  Biso   1.000  C  -0.485150
  C54      1.0000 0.46030  0.86710  0.15300  Biso   1.000  C  0.075711
  C55      1.0000 0.46370  0.87420  0.09040  Biso   1.000  C  0.600294
  C56      1.0000 0.16230  0.73640  0.52050  Biso   1.000  C  -0.178295
  C57      1.0000 0.28240  0.73140  0.51990  Biso   1.000  C  0.093111
  C58      1.0000 0.28230  0.67780  0.43700  Biso   1.000  C  0.108414
  C59      1.0000 0.15860  0.67800  0.43430  Biso   1.000  C  -0.191474
  C60      1.0000 0.09770  0.70740  0.47890  Biso   1.000  C  0.112409
  C61      1.0000 0.96790  0.70560  0.47780  Biso   1.000  C  0.107465
  C62      1.0000 0.90570  0.71990  0.43280  Biso   1.000  C  -0.178454
  C63      1.0000 0.78180  0.71740  0.43360  Biso   1.000  C  0.100312
  C64      1.0000 0.78790  0.68510  0.52440  Biso   1.000  C  0.088703
  C65      1.0000 0.90610  0.68910  0.52730  Biso   1.000  C  -0.159279
  C66      1.0000 0.51510  0.85390  0.44650  Biso   1.000  C  0.099215
  C67      1.0000 0.51990  0.92730  0.44980  Biso   1.000  C  -0.185237
  C68      1.0000 0.54860  0.96110  0.49730  Biso   1.000  C  0.113822
  C69      1.0000 0.57370  0.91690  0.54110  Biso   1.000  C  -0.174423
  C70      1.0000 0.56880  0.84340  0.53430  Biso   1.000  C  0.104520
  C71      1.0000 0.78730  0.51060  0.45420  Biso   1.000  C  0.107791
  C72      1.0000 0.90600  0.50960  0.45230  Biso   1.000  C  -0.188431
  C73      1.0000 0.16740  0.46580  0.46000  Biso   1.000  C  -0.183449
  C74      1.0000 0.28780  0.46650  0.46090  Biso   1.000  C  0.098274
  C75      1.0000 0.46500  0.11870  0.10300  Biso   1.000  C  0.578726
  C76      1.0000 0.46790  0.07020  0.15330  Biso   1.000  C  0.090145
  C77      1.0000 0.59370  0.05260  0.16780  Biso   1.000  C  -0.485602
  C78      1.0000 0.29400  0.11370  0.20240  Biso   1.000  C  0.482444
  C79      1.0000 0.24930  0.16040  0.24690  Biso   1.000  C  0.007033
  C80      1.0000 0.13810  0.14890  0.26850  Biso   1.000  C  -0.154651
  C81      1.0000 0.09330  0.19420  0.30730  Biso   1.000  C  -0.008736
  C82      1.0000 0.16020  0.25230  0.32740  Biso   1.000  C  -0.136271
  C83      1.0000 0.27290  0.26160  0.30730  Biso   1.000  C  -0.004234
  C84      1.0000 0.31780  0.21610  0.26700  Biso   1.000  C  -0.148420
  C85      1.0000 0.97120  0.18260  0.33160  Biso   1.000  C  0.487744
  C86      1.0000 0.75880  0.05150  0.31300  Biso   1.000  C  -0.500420
  C87      1.0000 0.77530  0.13300  0.31670  Biso   1.000  C  0.082051
  C88      1.0000 0.68220  0.17010  0.28150  Biso   1.000  C  0.571834
  C89      1.0000 0.34670  0.31990  0.33020  Biso   1.000  C  0.474126
  C90      1.0000 0.66600  0.35380  0.32910  Biso   1.000  C  -0.485150
  C91      1.0000 0.53970  0.36710  0.34700  Biso   1.000  C  0.075711
  C92      1.0000 0.53630  0.37420  0.40960  Biso   1.000  C  0.600294
  C93      1.0000 0.83770  0.23640  0.97950  Biso   1.000  C  -0.178295
  C94      1.0000 0.71760  0.23140  0.98010  Biso   1.000  C  0.093111
  C95      1.0000 0.71770  0.17780  0.06300  Biso   1.000  C  0.108414
  C96      1.0000 0.84140  0.17800  0.06570  Biso   1.000  C  -0.191474
  C97      1.0000 0.90230  0.20740  0.02110  Biso   1.000  C  0.112409
  C98      1.0000 0.03210  0.20560  0.02220  Biso   1.000  C  0.107465
  C99      1.0000 0.09430  0.21990  0.06720  Biso   1.000  C  -0.178454
  C100     1.0000 0.21820  0.21740  0.06640  Biso   1.000  C  0.100312
  C101     1.0000 0.21210  0.18510  0.97560  Biso   1.000  C  0.088703
  C102     1.0000 0.09390  0.18910  0.97270  Biso   1.000  C  -0.159279
  C103     1.0000 0.48490  0.35390  0.05350  Biso   1.000  C  0.099215
  C104     1.0000 0.48010  0.42730  0.05020  Biso   1.000  C  -0.185237
  C105     1.0000 0.45140  0.46110  0.00270  Biso   1.000  C  0.113822
  C106     1.0000 0.42630  0.41690  0.95890  Biso   1.000  C  -0.174423
  C107     1.0000 0.43120  0.34340  0.96570  Biso   1.000  C  0.104520
  C108     1.0000 0.21270  0.01060  0.04580  Biso   1.000  C  0.107791
  C109     1.0000 0.09400  0.00960  0.04770  Biso   1.000  C  -0.188431
  C110     1.0000 0.83260  0.96580  0.04000  Biso   1.000  C  -0.183449
  C111     1.0000 0.71220  0.96650  0.03910  Biso   1.000  C  0.098274
  C112     1.0000 0.46500  0.88130  0.89700  Biso   1.000  C  0.578726
  C113     1.0000 0.46790  0.92980  0.84670  Biso   1.000  C  0.090145
  C114     1.0000 0.59370  0.94740  0.83220  Biso   1.000  C  -0.485602
  C115     1.0000 0.29400  0.88630  0.79760  Biso   1.000  C  0.482444
  C116     1.0000 0.24930  0.83960  0.75310  Biso   1.000  C  0.007033
  C117     1.0000 0.13810  0.85110  0.73150  Biso   1.000  C  -0.154651
  C118     1.0000 0.09330  0.80580  0.69270  Biso   1.000  C  -0.008736
  C119     1.0000 0.16020  0.74770  0.67260  Biso   1.000  C  -0.136271
  C120     1.0000 0.27290  0.73840  0.69270  Biso   1.000  C  -0.004234
  C121     1.0000 0.31780  0.78390  0.73300  Biso   1.000  C  -0.148420
  C122     1.0000 0.97120  0.81740  0.66840  Biso   1.000  C  0.487744
  C123     1.0000 0.75880  0.94850  0.68700  Biso   1.000  C  -0.500420
  C124     1.0000 0.77530  0.86700  0.68330  Biso   1.000  C  0.082051
  C125     1.0000 0.68220  0.82990  0.71850  Biso   1.000  C  0.571834
  C126     1.0000 0.34670  0.68010  0.66980  Biso   1.000  C  0.474126
  C127     1.0000 0.66600  0.64620  0.67090  Biso   1.000  C  -0.485150
  C128     1.0000 0.53970  0.63290  0.65300  Biso   1.000  C  0.075711
  C129     1.0000 0.53630  0.62580  0.59040  Biso   1.000  C  0.600294
  C130     1.0000 0.83770  0.76360  0.02050  Biso   1.000  C  -0.178296
  C131     1.0000 0.71760  0.76860  0.01990  Biso   1.000  C  0.093111
  C132     1.0000 0.71770  0.82220  0.93700  Biso   1.000  C  0.108414
  C133     1.0000 0.84140  0.82200  0.93430  Biso   1.000  C  -0.191474
  C134     1.0000 0.90230  0.79260  0.97890  Biso   1.000  C  0.112409
  C135     1.0000 0.03210  0.79440  0.97780  Biso   1.000  C  0.107465
  C136     1.0000 0.09430  0.78010  0.93280  Biso   1.000  C  -0.178454
  C137     1.0000 0.21820  0.78260  0.93360  Biso   1.000  C  0.100312
  C138     1.0000 0.21210  0.81490  0.02440  Biso   1.000  C  0.088703
  C139     1.0000 0.09390  0.81090  0.02730  Biso   1.000  C  -0.159279
  C140     1.0000 0.48490  0.64610  0.94650  Biso   1.000  C  0.099215
  C141     1.0000 0.48010  0.57270  0.94980  Biso   1.000  C  -0.185237
  C142     1.0000 0.45140  0.53890  0.99730  Biso   1.000  C  0.113822
  C143     1.0000 0.42630  0.58310  0.04110  Biso   1.000  C  -0.174423
  C144     1.0000 0.43120  0.65660  0.03430  Biso   1.000  C  0.104520
  C145     1.0000 0.21270  0.98940  0.95420  Biso   1.000  C  0.107791
  C146     1.0000 0.09400  0.99040  0.95230  Biso   1.000  C  -0.188431
  C147     1.0000 0.83260  0.03420  0.96000  Biso   1.000  C  -0.183449
  C148     1.0000 0.71220  0.03350  0.96090  Biso   1.000  C  0.098274
  C149     1.0000 0.97230  0.50000  0.50000  Biso   1.000  C  0.104574
  C150     1.0000 0.10240  0.50000  0.50000  Biso   1.000  C  0.098994
  C151     1.0000 0.02770  0.00000  0.00000  Biso   1.000  C  0.104574
  C152     1.0000 0.89760  0.00000  0.00000  Biso   1.000  C  0.098994
  H1       1.0000 0.57470  0.47450  0.64490  Biso   1.000  H  0.078405
  H2       1.0000 0.36790  0.40520  0.68220  Biso   1.000  H  0.165635
  H3       1.0000 0.40510  0.48490  0.69520  Biso   1.000  H  0.163207
  H4       1.0000 0.36530  0.46350  0.63520  Biso   1.000  H  0.157054
  H5       1.0000 0.90670  0.39020  0.75640  Biso   1.000  H  0.117602
  H6       1.0000 0.87100  0.21630  0.85370  Biso   1.000  H  0.122166
  H7       1.0000 0.60580  0.27700  0.75340  Biso   1.000  H  0.124974
  H8       1.0000 0.23840  0.46320  0.77490  Biso   1.000  H  0.156716
  H9       1.0000 0.17890  0.47220  0.83320  Biso   1.000  H  0.148499
  H10      1.0000 0.31650  0.46150  0.82860  Biso   1.000  H  0.147949
  H11      1.0000 0.23570  0.35220  0.85540  Biso   1.000  H  0.073434
  H12      1.0000 0.30760  0.19170  0.84340  Biso   1.000  H  0.163470
  H13      1.0000 0.33010  0.14690  0.78930  Biso   1.000  H  0.174844
  H14      1.0000 0.28410  0.10840  0.84300  Biso   1.000  H  0.159257
  H15      1.0000 0.48690  0.08720  0.83080  Biso   1.000  H  0.077130
  H16      1.0000 0.12430  0.24010  0.45040  Biso   1.000  H  0.134688
  H17      1.0000 0.32370  0.25190  0.44940  Biso   1.000  H  0.095073
  H18      1.0000 0.32350  0.34250  0.59260  Biso   1.000  H  0.091311
  H19      1.0000 0.11860  0.34080  0.59610  Biso   1.000  H  0.140880
  H20      1.0000 0.94480  0.26820  0.59990  Biso   1.000  H  0.130706
  H21      1.0000 0.73970  0.27170  0.59850  Biso   1.000  H  0.103604
  H22      1.0000 0.74750  0.32910  0.44380  Biso   1.000  H  0.087310
  H23      1.0000 0.94620  0.31860  0.43960  Biso   1.000  H  0.138507
  H24      1.0000 0.49380  0.16700  0.58710  Biso   1.000  H  0.106428
  H25      1.0000 0.50300  0.04540  0.58150  Biso   1.000  H  0.131490
  H26      1.0000 0.59390  0.06360  0.42470  Biso   1.000  H  0.130838
  H27      1.0000 0.58810  0.18570  0.43570  Biso   1.000  H  0.098786
  H28      1.0000 0.74580  0.48090  0.57850  Biso   1.000  H  0.094429
  H29      1.0000 0.94430  0.48460  0.58150  Biso   1.000  H  0.133033
  H30      1.0000 0.12820  0.55850  0.56840  Biso   1.000  H  0.127943
  H31      1.0000 0.32850  0.55760  0.56710  Biso   1.000  H  0.095413
  H32      1.0000 0.54550  0.37780  0.72540  Biso   1.000  H  0.294120
  H33      1.0000 0.08190  0.36230  0.76740  Biso   1.000  H  0.284949
  H34      1.0000 0.50630  0.22810  0.81430  Biso   1.000  H  0.301508
  H35      1.0000 0.57470  0.52550  0.35510  Biso   1.000  H  0.078405
  H36      1.0000 0.36790  0.59480  0.31780  Biso   1.000  H  0.165635
  H37      1.0000 0.40510  0.51510  0.30480  Biso   1.000  H  0.163207
  H38      1.0000 0.36530  0.53650  0.36480  Biso   1.000  H  0.157054
  H39      1.0000 0.90670  0.60980  0.24360  Biso   1.000  H  0.117602
  H40      1.0000 0.87100  0.78370  0.14630  Biso   1.000  H  0.122166
  H41      1.0000 0.60580  0.72300  0.24660  Biso   1.000  H  0.124974
  H42      1.0000 0.23840  0.53680  0.22510  Biso   1.000  H  0.156716
  H43      1.0000 0.17890  0.52780  0.16680  Biso   1.000  H  0.148499
  H44      1.0000 0.31650  0.53850  0.17140  Biso   1.000  H  0.147949
  H45      1.0000 0.23570  0.64780  0.14460  Biso   1.000  H  0.073435
  H46      1.0000 0.30760  0.80830  0.15660  Biso   1.000  H  0.163470
  H47      1.0000 0.33010  0.85310  0.21070  Biso   1.000  H  0.174844
  H48      1.0000 0.28410  0.89160  0.15700  Biso   1.000  H  0.159257
  H49      1.0000 0.48690  0.91280  0.16920  Biso   1.000  H  0.077130
  H50      1.0000 0.12430  0.75990  0.54960  Biso   1.000  H  0.134688
  H51      1.0000 0.32370  0.74810  0.55060  Biso   1.000  H  0.095073
  H52      1.0000 0.32350  0.65750  0.40740  Biso   1.000  H  0.091311
  H53      1.0000 0.11860  0.65920  0.40390  Biso   1.000  H  0.140880
  H54      1.0000 0.94480  0.73180  0.40010  Biso   1.000  H  0.130706
  H55      1.0000 0.73970  0.72830  0.40150  Biso   1.000  H  0.103604
  H56      1.0000 0.74750  0.67090  0.55620  Biso   1.000  H  0.087310
  H57      1.0000 0.94620  0.68140  0.56040  Biso   1.000  H  0.138507
  H58      1.0000 0.49380  0.83300  0.41290  Biso   1.000  H  0.106428
  H59      1.0000 0.50300  0.95460  0.41850  Biso   1.000  H  0.131490
  H60      1.0000 0.59390  0.93640  0.57530  Biso   1.000  H  0.130838
  H61      1.0000 0.58810  0.81430  0.56430  Biso   1.000  H  0.098786
  H62      1.0000 0.74580  0.51910  0.42150  Biso   1.000  H  0.094429
  H63      1.0000 0.94430  0.51540  0.41850  Biso   1.000  H  0.133033
  H64      1.0000 0.12820  0.44150  0.43160  Biso   1.000  H  0.127943
  H65      1.0000 0.32850  0.44240  0.43290  Biso   1.000  H  0.095413
  H66      1.0000 0.54550  0.62220  0.27460  Biso   1.000  H  0.294120
  H67      1.0000 0.08190  0.63770  0.23260  Biso   1.000  H  0.284949
  H68      1.0000 0.50630  0.77190  0.18570  Biso   1.000  H  0.301508
  H69      1.0000 0.42530  0.02550  0.14490  Biso   1.000  H  0.078405
  H70      1.0000 0.63210  0.09480  0.18220  Biso   1.000  H  0.165635
  H71      1.0000 0.59490  0.01510  0.19520  Biso   1.000  H  0.163207
  H72      1.0000 0.63470  0.03650  0.13520  Biso   1.000  H  0.157054
  H73      1.0000 0.09330  0.10980  0.25640  Biso   1.000  H  0.117602
  H74      1.0000 0.12900  0.28370  0.35370  Biso   1.000  H  0.122166
  H75      1.0000 0.39420  0.22300  0.25340  Biso   1.000  H  0.124974
  H76      1.0000 0.76160  0.03680  0.27490  Biso   1.000  H  0.156716
  H77      1.0000 0.82110  0.02780  0.33320  Biso   1.000  H  0.148499
  H78      1.0000 0.68350  0.03850  0.32860  Biso   1.000  H  0.147949
  H79      1.0000 0.76430  0.14780  0.35540  Biso   1.000  H  0.073435
  H80      1.0000 0.69240  0.30830  0.34340  Biso   1.000  H  0.163470
  H81      1.0000 0.66990  0.35310  0.28930  Biso   1.000  H  0.174844
  H82      1.0000 0.71590  0.39160  0.34300  Biso   1.000  H  0.159257
  H83      1.0000 0.51310  0.41280  0.33080  Biso   1.000  H  0.077130
  H84      1.0000 0.87570  0.25990  0.95040  Biso   1.000  H  0.134688
  H85      1.0000 0.67630  0.24810  0.94940  Biso   1.000  H  0.095073
  H86      1.0000 0.67650  0.15750  0.09260  Biso   1.000  H  0.091311
  H87      1.0000 0.88140  0.15920  0.09610  Biso   1.000  H  0.140880
  H88      1.0000 0.05520  0.23180  0.09990  Biso   1.000  H  0.130706
  H89      1.0000 0.26030  0.22830  0.09850  Biso   1.000  H  0.103604
  H90      1.0000 0.25250  0.17090  0.94380  Biso   1.000  H  0.087310
  H91      1.0000 0.05380  0.18140  0.93960  Biso   1.000  H  0.138507
  H92      1.0000 0.50620  0.33300  0.08710  Biso   1.000  H  0.106428
  H93      1.0000 0.49700  0.45460  0.08150  Biso   1.000  H  0.131490
  H94      1.0000 0.40610  0.43640  0.92470  Biso   1.000  H  0.130838
  H95      1.0000 0.41190  0.31430  0.93570  Biso   1.000  H  0.098786
  H96      1.0000 0.25420  0.01910  0.07850  Biso   1.000  H  0.094429
  H97      1.0000 0.05570  0.01540  0.08150  Biso   1.000  H  0.133033
  H98      1.0000 0.87180  0.94150  0.06840  Biso   1.000  H  0.127943
  H99      1.0000 0.67150  0.94240  0.06710  Biso   1.000  H  0.095413
  H100     1.0000 0.45450  0.12220  0.22540  Biso   1.000  H  0.294120
  H101     1.0000 0.91810  0.13770  0.26740  Biso   1.000  H  0.284949
  H102     1.0000 0.49370  0.27190  0.31430  Biso   1.000  H  0.301508
  H103     1.0000 0.42530  0.97450  0.85510  Biso   1.000  H  0.078405
  H104     1.0000 0.63210  0.90520  0.81780  Biso   1.000  H  0.165635
  H105     1.0000 0.59490  0.98490  0.80480  Biso   1.000  H  0.163207
  H106     1.0000 0.63470  0.96350  0.86480  Biso   1.000  H  0.157054
  H107     1.0000 0.09330  0.89020  0.74360  Biso   1.000  H  0.117602
  H108     1.0000 0.12900  0.71630  0.64630  Biso   1.000  H  0.122166
  H109     1.0000 0.39420  0.77700  0.74660  Biso   1.000  H  0.124974
  H110     1.0000 0.76160  0.96320  0.72510  Biso   1.000  H  0.156716
  H111     1.0000 0.82110  0.97220  0.66680  Biso   1.000  H  0.148499
  H112     1.0000 0.68350  0.96150  0.67140  Biso   1.000  H  0.147949
  H113     1.0000 0.76430  0.85220  0.64460  Biso   1.000  H  0.073435
  H114     1.0000 0.69240  0.69170  0.65660  Biso   1.000  H  0.163470
  H115     1.0000 0.66990  0.64690  0.71070  Biso   1.000  H  0.174844
  H116     1.0000 0.71590  0.60840  0.65700  Biso   1.000  H  0.159257
  H117     1.0000 0.51310  0.58720  0.66920  Biso   1.000  H  0.077130
  H118     1.0000 0.87570  0.74010  0.04960  Biso   1.000  H  0.134688
  H119     1.0000 0.67630  0.75190  0.05060  Biso   1.000  H  0.095073
  H120     1.0000 0.67650  0.84250  0.90740  Biso   1.000  H  0.091311
  H121     1.0000 0.88140  0.84080  0.90390  Biso   1.000  H  0.140880
  H122     1.0000 0.05520  0.76820  0.90010  Biso   1.000  H  0.130706
  H123     1.0000 0.26030  0.77170  0.90150  Biso   1.000  H  0.103604
  H124     1.0000 0.25250  0.82910  0.05620  Biso   1.000  H  0.087310
  H125     1.0000 0.05380  0.81860  0.06040  Biso   1.000  H  0.138507
  H126     1.0000 0.50620  0.66700  0.91290  Biso   1.000  H  0.106428
  H127     1.0000 0.49700  0.54540  0.91850  Biso   1.000  H  0.131490
  H128     1.0000 0.40610  0.56360  0.07530  Biso   1.000  H  0.130838
  H129     1.0000 0.41190  0.68570  0.06430  Biso   1.000  H  0.098786
  H130     1.0000 0.25420  0.98090  0.92150  Biso   1.000  H  0.094429
  H131     1.0000 0.05570  0.98460  0.91850  Biso   1.000  H  0.133033
  H132     1.0000 0.87180  0.05850  0.93160  Biso   1.000  H  0.127943
  H133     1.0000 0.67150  0.05760  0.93290  Biso   1.000  H  0.095413
  H134     1.0000 0.45450  0.87780  0.77460  Biso   1.000  H  0.294120
  H135     1.0000 0.91810  0.86230  0.73260  Biso   1.000  H  0.284949
  H136     1.0000 0.49370  0.72810  0.68570  Biso   1.000  H  0.301508
  N1       1.0000 0.58900  0.39450  0.69900  Biso   1.000  N  -0.405872
  N2       1.0000 0.10430  0.34990  0.80020  Biso   1.000  N  -0.389867
  N3       1.0000 0.53590  0.18900  0.82760  Biso   1.000  N  -0.403593
  N4       1.0000 0.34450  0.29580  0.52180  Biso   1.000  N  -0.216713
  N5       1.0000 0.72290  0.30010  0.52060  Biso   1.000  N  -0.220651
  N6       1.0000 0.53850  0.18780  0.51220  Biso   1.000  N  -0.199976
  N7       1.0000 0.58900  0.60550  0.30100  Biso   1.000  N  -0.405872
  N8       1.0000 0.10430  0.65010  0.19980  Biso   1.000  N  -0.389867
  N9       1.0000 0.53590  0.81100  0.17240  Biso   1.000  N  -0.403593
  N10      1.0000 0.34450  0.70420  0.47820  Biso   1.000  N  -0.216713
  N11      1.0000 0.72290  0.69990  0.47940  Biso   1.000  N  -0.220651
  N12      1.0000 0.53850  0.81220  0.48780  Biso   1.000  N  -0.199976
  N13      1.0000 0.41100  0.10550  0.19900  Biso   1.000  N  -0.405872
  N14      1.0000 0.89570  0.15010  0.30020  Biso   1.000  N  -0.389867
  N15      1.0000 0.46410  0.31100  0.32760  Biso   1.000  N  -0.403593
  N16      1.0000 0.65550  0.20420  0.02180  Biso   1.000  N  -0.216713
  N17      1.0000 0.27710  0.19990  0.02060  Biso   1.000  N  -0.220651
  N18      1.0000 0.46150  0.31220  0.01220  Biso   1.000  N  -0.199976
  N19      1.0000 0.41100  0.89450  0.80100  Biso   1.000  N  -0.405872
  N20      1.0000 0.89570  0.84990  0.69980  Biso   1.000  N  -0.389867
  N21      1.0000 0.46410  0.68900  0.67240  Biso   1.000  N  -0.403593
  N22      1.0000 0.65550  0.79580  0.97820  Biso   1.000  N  -0.216713
  N23      1.0000 0.27710  0.80010  0.97940  Biso   1.000  N  -0.220651
  N24      1.0000 0.46150  0.68780  0.98780  Biso   1.000  N  -0.199976
  N25      1.0000 0.72700  0.50000  0.50000  Biso   1.000  N  -0.224822
  N26      1.0000 0.35040  0.50000  0.50000  Biso   1.000  N  -0.219596
  N27      1.0000 0.27300  0.00000  0.00000  Biso   1.000  N  -0.224822
  N28      1.0000 0.64960  0.00000  0.00000  Biso   1.000  N  -0.219595
  O1       1.0000 0.53300  0.40830  0.55456  Biso   1.000  O  -0.585085
  O2       1.0000 0.53630  0.31460  0.60777  Biso   1.000  O  -0.531679
  O3       1.0000 0.77300  0.41420  0.66860  Biso   1.000  O  -0.538444
  O4       1.0000 0.28390  0.29450  0.74050  Biso   1.000  O  -0.660619
  O5       1.0000 0.42170  0.33500  0.79570  Biso   1.000  O  -0.643598
  O6       1.0000 0.05210  0.29670  0.87750  Biso   1.000  O  -0.550143
  O7       1.0000 0.47490  0.18200  0.93663  Biso   1.000  O  -0.545115
  O8       1.0000 0.45400  0.06410  0.92958  Biso   1.000  O  -0.577001
  O9       1.0000 0.69690  0.12660  0.85160  Biso   1.000  O  -0.523375
  O10      1.0000 0.53300  0.59170  0.44544  Biso   1.000  O  -0.585085
  O11      1.0000 0.53630  0.68540  0.39223  Biso   1.000  O  -0.531679
  O12      1.0000 0.77300  0.58580  0.33140  Biso   1.000  O  -0.538444
  O13      1.0000 0.28390  0.70550  0.25950  Biso   1.000  O  -0.660619
  O14      1.0000 0.42170  0.66500  0.20430  Biso   1.000  O  -0.643598
  O15      1.0000 0.05210  0.70330  0.12250  Biso   1.000  O  -0.550143
  O16      1.0000 0.47490  0.81800  0.06337  Biso   1.000  O  -0.545115
  O17      1.0000 0.45400  0.93590  0.07042  Biso   1.000  O  -0.577001
  O18      1.0000 0.69690  0.87340  0.14840  Biso   1.000  O  -0.523375
  O19      1.0000 0.46700  0.09170  0.05456  Biso   1.000  O  -0.585085
  O20      1.0000 0.46370  0.18540  0.10777  Biso   1.000  O  -0.531679
  O21      1.0000 0.22700  0.08580  0.16860  Biso   1.000  O  -0.538444
  O22      1.0000 0.71610  0.20550  0.24050  Biso   1.000  O  -0.660619
  O23      1.0000 0.57830  0.16500  0.29570  Biso   1.000  O  -0.643598
  O24      1.0000 0.94790  0.20330  0.37750  Biso   1.000  O  -0.550143
  O25      1.0000 0.52510  0.31800  0.43663  Biso   1.000  O  -0.545115
  O26      1.0000 0.54600  0.43590  0.42958  Biso   1.000  O  -0.577001
  O27      1.0000 0.30310  0.37340  0.35160  Biso   1.000  O  -0.523375
  O28      1.0000 0.46700  0.90830  0.94544  Biso   1.000  O  -0.585085
  O29      1.0000 0.46370  0.81460  0.89223  Biso   1.000  O  -0.531679
  O30      1.0000 0.22700  0.91420  0.83140  Biso   1.000  O  -0.538444
  O31      1.0000 0.71610  0.79450  0.75950  Biso   1.000  O  -0.660619
  O32      1.0000 0.57830  0.83500  0.70430  Biso   1.000  O  -0.643598
  O33      1.0000 0.94790  0.79670  0.62250  Biso   1.000  O  -0.550143
  O34      1.0000 0.52510  0.68200  0.56337  Biso   1.000  O  -0.545115
  O35      1.0000 0.54600  0.56410  0.57042  Biso   1.000  O  -0.577001
  O36      1.0000 0.30310  0.62660  0.64840  Biso   1.000  O  -0.523375
  Zn1      1.0000 0.53323  0.29907  0.51798  Biso   1.000  Zn  0.698950
  Zn2      1.0000 0.53323  0.70093  0.48202  Biso   1.000  Zn  0.698950
  Zn3      1.0000 0.46677  0.20093  0.01798  Biso   1.000  Zn  0.698950
  Zn4      1.0000 0.46677  0.79907  0.98202  Biso   1.000  Zn  0.698950
  Zn5      1.0000 0.53791  0.50000  0.50000  Biso   1.000  Zn  0.880466
  Zn6      1.0000 0.46209  0.00000  0.00000  Biso   1.000  Zn  0.880466
