data_image0
_cell_length_a       20.71
_cell_length_b       15.286
_cell_length_c       17.893
_cell_angle_alpha    90
_cell_angle_beta     102.56
_cell_angle_gamma    90

_symmetry_space_group_name_H-M    "P 1"
_symmetry_int_tables_number       1

loop_
  _symmetry_equiv_pos_as_xyz
  'x, y, z'

loop_
  _atom_site_label
  _atom_site_occupancy
  _atom_site_fract_x
  _atom_site_fract_y
  _atom_site_fract_z
  _atom_site_thermal_displace_type
  _atom_site_B_iso_or_equiv
  _atom_site_type_symbol
  _atom_site_charge
  C1       1.0000 0.05180  0.41080  0.12760  Biso   1.000  C  0.580836
  C2       1.0000 0.94820  0.41080  0.37240  Biso   1.000  C  0.580836
  C3       1.0000 0.94820  0.58920  0.87240  Biso   1.000  C  0.580836
  C4       1.0000 0.05180  0.58920  0.62760  Biso   1.000  C  0.580836
  C5       1.0000 0.10670  0.39630  0.08500  Biso   1.000  C  -0.017498
  C6       1.0000 0.89330  0.39630  0.41500  Biso   1.000  C  -0.017498
  C7       1.0000 0.89330  0.60370  0.91500  Biso   1.000  C  -0.017498
  C8       1.0000 0.10670  0.60370  0.58500  Biso   1.000  C  -0.017498
  C9       1.0000 0.16550  0.36150  0.12170  Biso   1.000  C  -0.111727
  C10      1.0000 0.83450  0.36150  0.37830  Biso   1.000  C  -0.111727
  C11      1.0000 0.83450  0.63850  0.87830  Biso   1.000  C  -0.111727
  C12      1.0000 0.16550  0.63850  0.62170  Biso   1.000  C  -0.111727
  C13      1.0000 0.21730  0.34600  0.08430  Biso   1.000  C  -0.162606
  C14      1.0000 0.78270  0.34600  0.41570  Biso   1.000  C  -0.162606
  C15      1.0000 0.78270  0.65400  0.91570  Biso   1.000  C  -0.162606
  C16      1.0000 0.21730  0.65400  0.58430  Biso   1.000  C  -0.162606
  C17      1.0000 0.20910  0.36550  0.00580  Biso   1.000  C  0.061847
  C18      1.0000 0.79090  0.36550  0.49420  Biso   1.000  C  0.061847
  C19      1.0000 0.79090  0.63450  0.99420  Biso   1.000  C  0.061847
  C20      1.0000 0.20910  0.63450  0.50580  Biso   1.000  C  0.061847
  C21      1.0000 0.14780  0.40320  0.96980  Biso   1.000  C  -0.142267
  C22      1.0000 0.85220  0.40320  0.53020  Biso   1.000  C  -0.142267
  C23      1.0000 0.85220  0.59680  0.03020  Biso   1.000  C  -0.142267
  C24      1.0000 0.14780  0.59680  0.46980  Biso   1.000  C  -0.142267
  C25      1.0000 0.09820  0.41720  0.00780  Biso   1.000  C  -0.086082
  C26      1.0000 0.90180  0.41720  0.49220  Biso   1.000  C  -0.086082
  C27      1.0000 0.90180  0.58280  0.99220  Biso   1.000  C  -0.086082
  C28      1.0000 0.09820  0.58280  0.50780  Biso   1.000  C  -0.086082
  C29      1.0000 0.25960  0.34770  0.96180  Biso   1.000  C  0.087117
  C30      1.0000 0.74040  0.34770  0.53820  Biso   1.000  C  0.087117
  C31      1.0000 0.74040  0.65230  0.03820  Biso   1.000  C  0.087117
  C32      1.0000 0.25960  0.65230  0.46180  Biso   1.000  C  0.087117
  C33      1.0000 0.32720  0.35190  0.99500  Biso   1.000  C  -0.165381
  C34      1.0000 0.67280  0.35190  0.50500  Biso   1.000  C  -0.165381
  C35      1.0000 0.67280  0.64810  0.00500  Biso   1.000  C  -0.165381
  C36      1.0000 0.32720  0.64810  0.49500  Biso   1.000  C  -0.165380
  C37      1.0000 0.37530  0.33940  0.95310  Biso   1.000  C  -0.107892
  C38      1.0000 0.62470  0.33940  0.54690  Biso   1.000  C  -0.107892
  C39      1.0000 0.62470  0.66060  0.04690  Biso   1.000  C  -0.107892
  C40      1.0000 0.37530  0.66060  0.45310  Biso   1.000  C  -0.107892
  C41      1.0000 0.35860  0.32050  0.87580  Biso   1.000  C  -0.032671
  C42      1.0000 0.64140  0.32050  0.62420  Biso   1.000  C  -0.032672
  C43      1.0000 0.64140  0.67950  0.12420  Biso   1.000  C  -0.032672
  C44      1.0000 0.35860  0.67950  0.37580  Biso   1.000  C  -0.032672
  C45      1.0000 0.29060  0.31490  0.84450  Biso   1.000  C  -0.098495
  C46      1.0000 0.70940  0.31490  0.65550  Biso   1.000  C  -0.098495
  C47      1.0000 0.70940  0.68510  0.15550  Biso   1.000  C  -0.098495
  C48      1.0000 0.29060  0.68510  0.34450  Biso   1.000  C  -0.098495
  C49      1.0000 0.24290  0.32560  0.88550  Biso   1.000  C  -0.147574
  C50      1.0000 0.75710  0.32560  0.61450  Biso   1.000  C  -0.147574
  C51      1.0000 0.75710  0.67440  0.11450  Biso   1.000  C  -0.147574
  C52      1.0000 0.24290  0.67440  0.38550  Biso   1.000  C  -0.147574
  C53      1.0000 0.40980  0.31330  0.82960  Biso   1.000  C  0.587937
  C54      1.0000 0.59020  0.31330  0.67040  Biso   1.000  C  0.587937
  C55      1.0000 0.59020  0.68670  0.17040  Biso   1.000  C  0.587937
  C56      1.0000 0.40980  0.68670  0.32960  Biso   1.000  C  0.587937
  C57      1.0000 0.00000  0.58900  0.25000  Biso   1.000  C  0.577283
  C58      1.0000 1.00000  0.41100  0.75000  Biso   1.000  C  0.577283
  C59      1.0000 0.00000  0.68640  0.25000  Biso   1.000  C  -0.017258
  C60      1.0000 1.00000  0.31360  0.75000  Biso   1.000  C  -0.017258
  C61      1.0000 0.05170  0.73100  0.29510  Biso   1.000  C  -0.101607
  C62      1.0000 0.94830  0.73100  0.20490  Biso   1.000  C  -0.101607
  C63      1.0000 0.94830  0.26900  0.70490  Biso   1.000  C  -0.101607
  C64      1.0000 0.05170  0.26900  0.79510  Biso   1.000  C  -0.101607
  C65      1.0000 0.05330  0.82260  0.29500  Biso   1.000  C  -0.152842
  C66      1.0000 0.94670  0.82260  0.20500  Biso   1.000  C  -0.152842
  C67      1.0000 0.94670  0.17740  0.70500  Biso   1.000  C  -0.152842
  C68      1.0000 0.05330  0.17740  0.79500  Biso   1.000  C  -0.152842
  C69      1.0000 0.00000  0.87190  0.25000  Biso   1.000  C  0.070288
  C70      1.0000 1.00000  0.12810  0.75000  Biso   1.000  C  0.070288
  C71      1.0000 0.00000  0.96830  0.25000  Biso   1.000  C  0.072632
  C72      1.0000 1.00000  0.03170  0.75000  Biso   1.000  C  0.072632
  C73      1.0000 0.03800  0.01570  0.30990  Biso   1.000  C  -0.152181
  C74      1.0000 0.96200  0.01570  0.19010  Biso   1.000  C  -0.152181
  C75      1.0000 0.96200  0.98430  0.69010  Biso   1.000  C  -0.152181
  C76      1.0000 0.03800  0.98430  0.80990  Biso   1.000  C  -0.152181
  C77      1.0000 0.03510  0.10750  0.31140  Biso   1.000  C  -0.104404
  C78      1.0000 0.96490  0.10750  0.18860  Biso   1.000  C  -0.104404
  C79      1.0000 0.96490  0.89250  0.68860  Biso   1.000  C  -0.104404
  C80      1.0000 0.03510  0.89250  0.81140  Biso   1.000  C  -0.104404
  C81      1.0000 0.00000  0.15140  0.25000  Biso   1.000  C  -0.016980
  C82      1.0000 1.00000  0.84860  0.75000  Biso   1.000  C  -0.016980
  C83      1.0000 0.00000  0.24970  0.25000  Biso   1.000  C  0.595834
  C84      1.0000 1.00000  0.75030  0.75000  Biso   1.000  C  0.595834
  C85      1.0000 0.16360  0.32620  0.46840  Biso   1.000  C  -0.527201
  C86      1.0000 0.83640  0.32620  0.03160  Biso   1.000  C  -0.527201
  C87      1.0000 0.83640  0.67380  0.53160  Biso   1.000  C  -0.527201
  C88      1.0000 0.16360  0.67380  0.96840  Biso   1.000  C  -0.527201
  C89      1.0000 0.19400  0.37360  0.41180  Biso   1.000  C  0.238638
  C90      1.0000 0.80600  0.37360  0.08820  Biso   1.000  C  0.238638
  C91      1.0000 0.80600  0.62640  0.58820  Biso   1.000  C  0.238638
  C92      1.0000 0.19400  0.62640  0.91180  Biso   1.000  C  0.238638
  C93      1.0000 0.26110  0.38140  0.40600  Biso   1.000  C  -0.155004
  C94      1.0000 0.73890  0.38140  0.09400  Biso   1.000  C  -0.155004
  C95      1.0000 0.73890  0.61860  0.59400  Biso   1.000  C  -0.155005
  C96      1.0000 0.26110  0.61860  0.90600  Biso   1.000  C  -0.155005
  C97      1.0000 0.26170  0.43150  0.34330  Biso   1.000  C  0.234784
  C98      1.0000 0.73830  0.43150  0.15670  Biso   1.000  C  0.234784
  C99      1.0000 0.73830  0.56850  0.65670  Biso   1.000  C  0.234784
  C100     1.0000 0.26170  0.56850  0.84330  Biso   1.000  C  0.234784
  C101     1.0000 0.31400  0.46170  0.30620  Biso   1.000  C  -0.532636
  C102     1.0000 0.68600  0.46170  0.19380  Biso   1.000  C  -0.532635
  C103     1.0000 0.68600  0.53830  0.69380  Biso   1.000  C  -0.532635
  C104     1.0000 0.31400  0.53830  0.80620  Biso   1.000  C  -0.532635
  C105     1.0000 0.30530  0.42000  0.58960  Biso   1.000  C  -0.530031
  C106     1.0000 0.69470  0.42000  0.91040  Biso   1.000  C  -0.530030
  C107     1.0000 0.69470  0.58000  0.41040  Biso   1.000  C  -0.530030
  C108     1.0000 0.30530  0.58000  0.08960  Biso   1.000  C  -0.530030
  C109     1.0000 0.33780  0.36020  0.54150  Biso   1.000  C  0.258915
  C110     1.0000 0.66220  0.36020  0.95850  Biso   1.000  C  0.258915
  C111     1.0000 0.66220  0.63980  0.45850  Biso   1.000  C  0.258915
  C112     1.0000 0.33780  0.63980  0.04150  Biso   1.000  C  0.258915
  C113     1.0000 0.31720  0.34310  0.46120  Biso   1.000  C  -0.138558
  C114     1.0000 0.68280  0.34310  0.03880  Biso   1.000  C  -0.138558
  C115     1.0000 0.68280  0.65690  0.53880  Biso   1.000  C  -0.138558
  C116     1.0000 0.31720  0.65690  0.96120  Biso   1.000  C  -0.138558
  C117     1.0000 0.36170  0.28560  0.44490  Biso   1.000  C  0.221553
  C118     1.0000 0.63830  0.28560  0.05510  Biso   1.000  C  0.221553
  C119     1.0000 0.63830  0.71440  0.55510  Biso   1.000  C  0.221553
  C120     1.0000 0.36170  0.71440  0.94490  Biso   1.000  C  0.221553
  C121     1.0000 0.36700  0.23490  0.37340  Biso   1.000  C  -0.522473
  C122     1.0000 0.63300  0.23490  0.12660  Biso   1.000  C  -0.522473
  C123     1.0000 0.63300  0.76510  0.62660  Biso   1.000  C  -0.522474
  C124     1.0000 0.36700  0.76510  0.87340  Biso   1.000  C  -0.522474
  C125     1.0000 0.50000  0.47850  0.75000  Biso   1.000  C  0.585209
  C126     1.0000 0.50000  0.52150  0.25000  Biso   1.000  C  0.585209
  C127     1.0000 0.50000  0.57730  0.75000  Biso   1.000  C  -0.021917
  C128     1.0000 0.50000  0.42270  0.25000  Biso   1.000  C  -0.021917
  C129     1.0000 0.53730  0.62400  0.81010  Biso   1.000  C  -0.103438
  C130     1.0000 0.46270  0.62400  0.68990  Biso   1.000  C  -0.103438
  C131     1.0000 0.46270  0.37600  0.18990  Biso   1.000  C  -0.103438
  C132     1.0000 0.53730  0.37600  0.31010  Biso   1.000  C  -0.103438
  C133     1.0000 0.53680  0.71440  0.81090  Biso   1.000  C  -0.166316
  C134     1.0000 0.46320  0.71440  0.68910  Biso   1.000  C  -0.166316
  C135     1.0000 0.46320  0.28560  0.18910  Biso   1.000  C  -0.166316
  C136     1.0000 0.53680  0.28560  0.31090  Biso   1.000  C  -0.166316
  C137     1.0000 0.50000  0.76190  0.75000  Biso   1.000  C  0.070114
  C138     1.0000 0.50000  0.23810  0.25000  Biso   1.000  C  0.070115
  C139     1.0000 0.50000  0.85840  0.75000  Biso   1.000  C  0.069274
  C140     1.0000 0.50000  0.14160  0.25000  Biso   1.000  C  0.069274
  C141     1.0000 0.55070  0.90430  0.79510  Biso   1.000  C  -0.160041
  C142     1.0000 0.44930  0.90430  0.70490  Biso   1.000  C  -0.160041
  C143     1.0000 0.44930  0.09570  0.20490  Biso   1.000  C  -0.160040
  C144     1.0000 0.55070  0.09570  0.29510  Biso   1.000  C  -0.160040
  C145     1.0000 0.54720  0.99590  0.79730  Biso   1.000  C  -0.098996
  C146     1.0000 0.45280  0.99590  0.70270  Biso   1.000  C  -0.098996
  C147     1.0000 0.45280  0.00410  0.20270  Biso   1.000  C  -0.098996
  C148     1.0000 0.54720  0.00410  0.29730  Biso   1.000  C  -0.098996
  C149     1.0000 0.50000  0.04250  0.75000  Biso   1.000  C  -0.016716
  C150     1.0000 0.50000  0.95750  0.25000  Biso   1.000  C  -0.016716
  C151     1.0000 0.50000  0.14150  0.75000  Biso   1.000  C  0.601167
  C152     1.0000 0.50000  0.85850  0.25000  Biso   1.000  C  0.601167
  Co1      1.0000 0.05324  0.41881  0.31755  Biso   1.000  Co  0.892595
  Co2      1.0000 0.94676  0.41881  0.18245  Biso   1.000  Co  0.892594
  Co3      1.0000 0.94676  0.58119  0.68245  Biso   1.000  Co  0.892595
  Co4      1.0000 0.05324  0.58119  0.81755  Biso   1.000  Co  0.892595
  Co5      1.0000 0.44743  0.31008  0.68139  Biso   1.000  Co  0.850422
  Co6      1.0000 0.55257  0.31008  0.81861  Biso   1.000  Co  0.850421
  Co7      1.0000 0.55257  0.68992  0.31861  Biso   1.000  Co  0.850419
  Co8      1.0000 0.44743  0.68992  0.18139  Biso   1.000  Co  0.850421
  H1       1.0000 0.18330  0.48240  0.27110  Biso   1.000  H  0.300957
  H2       1.0000 0.81670  0.48240  0.22890  Biso   1.000  H  0.300957
  H3       1.0000 0.81670  0.51760  0.72890  Biso   1.000  H  0.300957
  H4       1.0000 0.18330  0.51760  0.77110  Biso   1.000  H  0.300957
  H5       1.0000 0.44200  0.23310  0.51800  Biso   1.000  H  0.311997
  H6       1.0000 0.55800  0.23310  0.98200  Biso   1.000  H  0.311997
  H7       1.0000 0.55800  0.76690  0.48200  Biso   1.000  H  0.311998
  H8       1.0000 0.44200  0.76690  0.01800  Biso   1.000  H  0.311998
  H9       1.0000 0.17160  0.34760  0.17340  Biso   1.000  H  0.110399
  H10      1.0000 0.82840  0.34760  0.32660  Biso   1.000  H  0.110399
  H11      1.0000 0.82840  0.65240  0.82660  Biso   1.000  H  0.110399
  H12      1.0000 0.17160  0.65240  0.67340  Biso   1.000  H  0.110399
  H13      1.0000 0.25710  0.32280  0.11130  Biso   1.000  H  0.109243
  H14      1.0000 0.74290  0.32280  0.38870  Biso   1.000  H  0.109243
  H15      1.0000 0.74290  0.67720  0.88870  Biso   1.000  H  0.109244
  H16      1.0000 0.25710  0.67720  0.61130  Biso   1.000  H  0.109243
  H17      1.0000 0.14100  0.41890  0.91850  Biso   1.000  H  0.107402
  H18      1.0000 0.85900  0.41890  0.58150  Biso   1.000  H  0.107402
  H19      1.0000 0.85900  0.58110  0.08150  Biso   1.000  H  0.107402
  H20      1.0000 0.14100  0.58110  0.41850  Biso   1.000  H  0.107402
  H21      1.0000 0.05830  0.44110  0.98180  Biso   1.000  H  0.122836
  H22      1.0000 0.94170  0.44110  0.51820  Biso   1.000  H  0.122836
  H23      1.0000 0.94170  0.55890  0.01820  Biso   1.000  H  0.122836
  H24      1.0000 0.05830  0.55890  0.48180  Biso   1.000  H  0.122836
  H25      1.0000 0.34030  0.36360  0.04710  Biso   1.000  H  0.105864
  H26      1.0000 0.65970  0.36360  0.45290  Biso   1.000  H  0.105864
  H27      1.0000 0.65970  0.63640  0.95290  Biso   1.000  H  0.105864
  H28      1.0000 0.34030  0.63640  0.54710  Biso   1.000  H  0.105864
  H29      1.0000 0.41960  0.34370  0.97740  Biso   1.000  H  0.112873
  H30      1.0000 0.58040  0.34370  0.52260  Biso   1.000  H  0.112873
  H31      1.0000 0.58040  0.65630  0.02260  Biso   1.000  H  0.112873
  H32      1.0000 0.41960  0.65630  0.47740  Biso   1.000  H  0.112873
  H33      1.0000 0.27710  0.30310  0.79250  Biso   1.000  H  0.111471
  H34      1.0000 0.72290  0.30310  0.70750  Biso   1.000  H  0.111471
  H35      1.0000 0.72290  0.69690  0.20750  Biso   1.000  H  0.111471
  H36      1.0000 0.27710  0.69690  0.29250  Biso   1.000  H  0.111471
  H37      1.0000 0.19870  0.31790  0.86170  Biso   1.000  H  0.115235
  H38      1.0000 0.80130  0.31790  0.63830  Biso   1.000  H  0.115235
  H39      1.0000 0.80130  0.68210  0.13830  Biso   1.000  H  0.115235
  H40      1.0000 0.19870  0.68210  0.36170  Biso   1.000  H  0.115235
  H41      1.0000 0.08590  0.70010  0.32610  Biso   1.000  H  0.109717
  H42      1.0000 0.91410  0.70010  0.17390  Biso   1.000  H  0.109717
  H43      1.0000 0.91410  0.29990  0.67390  Biso   1.000  H  0.109717
  H44      1.0000 0.08590  0.29990  0.82610  Biso   1.000  H  0.109717
  H45      1.0000 0.08950  0.85170  0.32440  Biso   1.000  H  0.115810
  H46      1.0000 0.91050  0.85170  0.17560  Biso   1.000  H  0.115810
  H47      1.0000 0.91050  0.14830  0.67560  Biso   1.000  H  0.115810
  H48      1.0000 0.08950  0.14830  0.82440  Biso   1.000  H  0.115810
  H49      1.0000 0.06590  0.98620  0.34970  Biso   1.000  H  0.111562
  H50      1.0000 0.93410  0.98620  0.15030  Biso   1.000  H  0.111561
  H51      1.0000 0.93410  0.01380  0.65030  Biso   1.000  H  0.111562
  H52      1.0000 0.06590  0.01380  0.84970  Biso   1.000  H  0.111562
  H53      1.0000 0.05730  0.13800  0.35430  Biso   1.000  H  0.120061
  H54      1.0000 0.94270  0.13800  0.14570  Biso   1.000  H  0.120061
  H55      1.0000 0.94270  0.86200  0.64570  Biso   1.000  H  0.120061
  H56      1.0000 0.05730  0.86200  0.85430  Biso   1.000  H  0.120061
  H57      1.0000 0.11650  0.33380  0.45530  Biso   1.000  H  0.184631
  H58      1.0000 0.88350  0.33380  0.04470  Biso   1.000  H  0.184631
  H59      1.0000 0.88350  0.66620  0.54470  Biso   1.000  H  0.184631
  H60      1.0000 0.11650  0.66620  0.95530  Biso   1.000  H  0.184631
  H61      1.0000 0.18080  0.34920  0.51870  Biso   1.000  H  0.168901
  H62      1.0000 0.81920  0.34920  0.98130  Biso   1.000  H  0.168901
  H63      1.0000 0.81920  0.65080  0.48130  Biso   1.000  H  0.168901
  H64      1.0000 0.18080  0.65080  0.01870  Biso   1.000  H  0.168901
  H65      1.0000 0.17400  0.26510  0.46750  Biso   1.000  H  0.178487
  H66      1.0000 0.82600  0.26510  0.03250  Biso   1.000  H  0.178487
  H67      1.0000 0.82600  0.73490  0.53250  Biso   1.000  H  0.178487
  H68      1.0000 0.17400  0.73490  0.96750  Biso   1.000  H  0.178487
  H69      1.0000 0.29490  0.49620  0.26210  Biso   1.000  H  0.178768
  H70      1.0000 0.70510  0.49620  0.23790  Biso   1.000  H  0.178768
  H71      1.0000 0.70510  0.50380  0.73790  Biso   1.000  H  0.178768
  H72      1.0000 0.29490  0.50380  0.76210  Biso   1.000  H  0.178768
  H73      1.0000 0.33630  0.41210  0.29070  Biso   1.000  H  0.174379
  H74      1.0000 0.66370  0.41210  0.20930  Biso   1.000  H  0.174379
  H75      1.0000 0.66370  0.58790  0.70930  Biso   1.000  H  0.174379
  H76      1.0000 0.33630  0.58790  0.79070  Biso   1.000  H  0.174379
  H77      1.0000 0.34500  0.49660  0.34160  Biso   1.000  H  0.181995
  H78      1.0000 0.65500  0.49660  0.15840  Biso   1.000  H  0.181996
  H79      1.0000 0.65500  0.50340  0.65840  Biso   1.000  H  0.181996
  H80      1.0000 0.34500  0.50340  0.84160  Biso   1.000  H  0.181996
  H81      1.0000 0.33000  0.41900  0.64170  Biso   1.000  H  0.175649
  H82      1.0000 0.67000  0.41900  0.85830  Biso   1.000  H  0.175649
  H83      1.0000 0.67000  0.58100  0.35830  Biso   1.000  H  0.175649
  H84      1.0000 0.33000  0.58100  0.14170  Biso   1.000  H  0.175649
  H85      1.0000 0.26090  0.40050  0.58770  Biso   1.000  H  0.170313
  H86      1.0000 0.73910  0.40050  0.91230  Biso   1.000  H  0.170313
  H87      1.0000 0.73910  0.59950  0.41230  Biso   1.000  H  0.170313
  H88      1.0000 0.26090  0.59950  0.08770  Biso   1.000  H  0.170313
  H89      1.0000 0.30440  0.47860  0.57010  Biso   1.000  H  0.170546
  H90      1.0000 0.69560  0.47860  0.92990  Biso   1.000  H  0.170546
  H91      1.0000 0.69560  0.52140  0.42990  Biso   1.000  H  0.170547
  H92      1.0000 0.30440  0.52140  0.07010  Biso   1.000  H  0.170547
  H93      1.0000 0.33320  0.25440  0.33100  Biso   1.000  H  0.175496
  H94      1.0000 0.66680  0.25440  0.16900  Biso   1.000  H  0.175496
  H95      1.0000 0.66680  0.74560  0.66900  Biso   1.000  H  0.175496
  H96      1.0000 0.33320  0.74560  0.83100  Biso   1.000  H  0.175496
  H97      1.0000 0.36130  0.17360  0.38170  Biso   1.000  H  0.179885
  H98      1.0000 0.63870  0.17360  0.11830  Biso   1.000  H  0.179885
  H99      1.0000 0.63870  0.82640  0.61830  Biso   1.000  H  0.179887
  H100     1.0000 0.36130  0.82640  0.88170  Biso   1.000  H  0.179887
  H101     1.0000 0.40970  0.24470  0.36220  Biso   1.000  H  0.170546
  H102     1.0000 0.59030  0.24470  0.13780  Biso   1.000  H  0.170546
  H103     1.0000 0.59030  0.75530  0.63780  Biso   1.000  H  0.170546
  H104     1.0000 0.40970  0.75530  0.86220  Biso   1.000  H  0.170546
  H105     1.0000 0.56330  0.59400  0.85100  Biso   1.000  H  0.114760
  H106     1.0000 0.43670  0.59400  0.64900  Biso   1.000  H  0.114760
  H107     1.0000 0.43670  0.40600  0.14900  Biso   1.000  H  0.114760
  H108     1.0000 0.56330  0.40600  0.35100  Biso   1.000  H  0.114760
  H109     1.0000 0.56160  0.74400  0.85290  Biso   1.000  H  0.109632
  H110     1.0000 0.43840  0.74400  0.64710  Biso   1.000  H  0.109632
  H111     1.0000 0.43840  0.25600  0.14710  Biso   1.000  H  0.109632
  H112     1.0000 0.56160  0.25600  0.35290  Biso   1.000  H  0.109632
  H113     1.0000 0.58700  0.87500  0.82400  Biso   1.000  H  0.114516
  H114     1.0000 0.41300  0.87500  0.67600  Biso   1.000  H  0.114516
  H115     1.0000 0.41300  0.12500  0.17600  Biso   1.000  H  0.114516
  H116     1.0000 0.58700  0.12500  0.32400  Biso   1.000  H  0.114516
  H117     1.0000 0.57890  0.02580  0.83300  Biso   1.000  H  0.112331
  H118     1.0000 0.42110  0.02580  0.66700  Biso   1.000  H  0.112330
  H119     1.0000 0.42110  0.97420  0.16700  Biso   1.000  H  0.112330
  H120     1.0000 0.57890  0.97420  0.33300  Biso   1.000  H  0.112330
  N1       1.0000 0.15483  0.41790  0.35360  Biso   1.000  N  -0.237476
  N2       1.0000 0.84517  0.41790  0.14640  Biso   1.000  N  -0.237476
  N3       1.0000 0.84517  0.58210  0.64640  Biso   1.000  N  -0.237476
  N4       1.0000 0.15483  0.58210  0.85360  Biso   1.000  N  -0.237476
  N5       1.0000 0.19610  0.45180  0.31200  Biso   1.000  N  -0.197335
  N6       1.0000 0.80390  0.45180  0.18800  Biso   1.000  N  -0.197335
  N7       1.0000 0.80390  0.54820  0.68800  Biso   1.000  N  -0.197335
  N8       1.0000 0.19610  0.54820  0.81200  Biso   1.000  N  -0.197335
  N9       1.0000 0.38900  0.31250  0.57300  Biso   1.000  N  -0.215231
  N10      1.0000 0.61100  0.31250  0.92700  Biso   1.000  N  -0.215231
  N11      1.0000 0.61100  0.68750  0.42700  Biso   1.000  N  -0.215231
  N12      1.0000 0.38900  0.68750  0.07300  Biso   1.000  N  -0.215231
  N13      1.0000 0.40810  0.26670  0.51350  Biso   1.000  N  -0.229478
  N14      1.0000 0.59190  0.26670  0.98650  Biso   1.000  N  -0.229478
  N15      1.0000 0.59190  0.73330  0.48650  Biso   1.000  N  -0.229479
  N16      1.0000 0.40810  0.73330  0.01350  Biso   1.000  N  -0.229479
  O1       1.0000 0.06812  0.41630  0.20013  Biso   1.000  O  -0.600352
  O2       1.0000 0.93188  0.41630  0.29987  Biso   1.000  O  -0.600352
  O3       1.0000 0.93188  0.58370  0.79987  Biso   1.000  O  -0.600352
  O4       1.0000 0.06812  0.58370  0.70013  Biso   1.000  O  -0.600352
  O5       1.0000 0.99240  0.41640  0.09075  Biso   1.000  O  -0.522577
  O6       1.0000 0.00760  0.41640  0.40925  Biso   1.000  O  -0.522577
  O7       1.0000 0.00760  0.58360  0.90925  Biso   1.000  O  -0.522577
  O8       1.0000 0.99240  0.58360  0.59075  Biso   1.000  O  -0.522576
  O9       1.0000 0.46950  0.30900  0.86300  Biso   1.000  O  -0.564491
  O10      1.0000 0.53050  0.30900  0.63700  Biso   1.000  O  -0.564491
  O11      1.0000 0.53050  0.69100  0.13700  Biso   1.000  O  -0.564491
  O12      1.0000 0.46950  0.69100  0.36300  Biso   1.000  O  -0.564490
  O13      1.0000 0.38750  0.30920  0.75720  Biso   1.000  O  -0.553496
  O14      1.0000 0.61250  0.30920  0.74280  Biso   1.000  O  -0.553496
  O15      1.0000 0.61250  0.69080  0.24280  Biso   1.000  O  -0.553496
  O16      1.0000 0.38750  0.69080  0.25720  Biso   1.000  O  -0.553496
  O17      1.0000 0.04331  0.54900  0.30121  Biso   1.000  O  -0.546978
  O18      1.0000 0.95669  0.54900  0.19879  Biso   1.000  O  -0.546978
  O19      1.0000 0.95669  0.45100  0.69879  Biso   1.000  O  -0.546978
  O20      1.0000 0.04331  0.45100  0.80121  Biso   1.000  O  -0.546978
  O21      1.0000 0.04008  0.28700  0.30349  Biso   1.000  O  -0.547019
  O22      1.0000 0.95992  0.28700  0.19651  Biso   1.000  O  -0.547019
  O23      1.0000 0.95992  0.71300  0.69651  Biso   1.000  O  -0.547019
  O24      1.0000 0.04008  0.71300  0.80349  Biso   1.000  O  -0.547019
  O25      1.0000 0.45950  0.44200  0.69700  Biso   1.000  O  -0.545311
  O26      1.0000 0.54050  0.44200  0.80300  Biso   1.000  O  -0.545310
  O27      1.0000 0.54050  0.55800  0.30300  Biso   1.000  O  -0.545309
  O28      1.0000 0.45950  0.55800  0.19700  Biso   1.000  O  -0.545310
  O29      1.0000 0.46030  0.17840  0.69620  Biso   1.000  O  -0.547711
  O30      1.0000 0.53970  0.17840  0.80380  Biso   1.000  O  -0.547710
  O31      1.0000 0.53970  0.82160  0.30380  Biso   1.000  O  -0.547710
  O32      1.0000 0.46030  0.82160  0.19620  Biso   1.000  O  -0.547710
