data_image0
_cell_length_a       35.0858
_cell_length_b       35.0858
_cell_length_c       35.0858
_cell_angle_alpha    60
_cell_angle_beta     60
_cell_angle_gamma    60

_symmetry_space_group_name_H-M    "P 1"
_symmetry_int_tables_number       1

loop_
  _symmetry_equiv_pos_as_xyz
  'x, y, z'

loop_
  _atom_site_label
  _atom_site_occupancy
  _atom_site_fract_x
  _atom_site_fract_y
  _atom_site_fract_z
  _atom_site_thermal_displace_type
  _atom_site_B_iso_or_equiv
  _atom_site_type_symbol
  _atom_site_charge
  C1       1.0000 0.50680  0.12460  0.19640  Biso   1.000  C  0.510440
  C2       1.0000 0.50880  0.06720  0.27980  Biso   1.000  C  0.286651
  C3       1.0000 0.52000  0.08980  0.29260  Biso   1.000  C  -0.198984
  C4       1.0000 0.52210  0.07450  0.33550  Biso   1.000  C  -0.087613
  C5       1.0000 0.51070  0.03510  0.37110  Biso   1.000  C  -0.023112
  C6       1.0000 0.50150  0.01390  0.35650  Biso   1.000  C  -0.063378
  C7       1.0000 0.49940  0.02740  0.31300  Biso   1.000  C  -0.225519
  C8       1.0000 0.51190  0.02430  0.41670  Biso   1.000  C  0.561274
  C9       1.0000 0.12460  0.50680  0.17220  Biso   1.000  C  0.510446
  C10      1.0000 0.06720  0.50880  0.14420  Biso   1.000  C  0.286657
  C11      1.0000 0.08980  0.52000  0.09760  Biso   1.000  C  -0.198995
  C12      1.0000 0.07450  0.52210  0.06790  Biso   1.000  C  -0.087635
  C13      1.0000 0.03510  0.51070  0.08310  Biso   1.000  C  -0.023109
  C14      1.0000 0.01390  0.50150  0.12810  Biso   1.000  C  -0.063381
  C15      1.0000 0.02740  0.49940  0.16020  Biso   1.000  C  -0.225518
  C16      1.0000 0.02430  0.51190  0.04710  Biso   1.000  C  0.561273
  C17      1.0000 0.19640  0.17220  0.50680  Biso   1.000  C  0.510427
  C18      1.0000 0.27980  0.14420  0.50880  Biso   1.000  C  0.286652
  C19      1.0000 0.29260  0.09760  0.52000  Biso   1.000  C  -0.198991
  C20      1.0000 0.33550  0.06790  0.52210  Biso   1.000  C  -0.087634
  C21      1.0000 0.37110  0.08310  0.51070  Biso   1.000  C  -0.023110
  C22      1.0000 0.35650  0.12810  0.50150  Biso   1.000  C  -0.063384
  C23      1.0000 0.31300  0.16020  0.49940  Biso   1.000  C  -0.225505
  C24      1.0000 0.41670  0.04710  0.51190  Biso   1.000  C  0.561280
  C25      1.0000 0.17220  0.19640  0.12460  Biso   1.000  C  0.510516
  C26      1.0000 0.14420  0.27980  0.06720  Biso   1.000  C  0.286674
  C27      1.0000 0.09760  0.29260  0.08980  Biso   1.000  C  -0.199009
  C28      1.0000 0.06790  0.33550  0.07450  Biso   1.000  C  -0.087607
  C29      1.0000 0.08310  0.37110  0.03510  Biso   1.000  C  -0.023125
  C30      1.0000 0.12810  0.35650  0.01390  Biso   1.000  C  -0.063395
  C31      1.0000 0.16020  0.31300  0.02740  Biso   1.000  C  -0.225504
  C32      1.0000 0.04710  0.41670  0.02430  Biso   1.000  C  0.561269
  C33      1.0000 0.50680  0.19640  0.17220  Biso   1.000  C  0.510418
  C34      1.0000 0.50880  0.27980  0.14420  Biso   1.000  C  0.286467
  C35      1.0000 0.52000  0.29260  0.09760  Biso   1.000  C  -0.198700
  C36      1.0000 0.52210  0.33550  0.06790  Biso   1.000  C  -0.088184
  C37      1.0000 0.51070  0.37110  0.08310  Biso   1.000  C  -0.021194
  C38      1.0000 0.50150  0.35650  0.12810  Biso   1.000  C  -0.064334
  C39      1.0000 0.49940  0.31300  0.16020  Biso   1.000  C  -0.225115
  C40      1.0000 0.51190  0.41670  0.04710  Biso   1.000  C  0.557947
  C41      1.0000 0.12460  0.17220  0.19640  Biso   1.000  C  0.510511
  C42      1.0000 0.06720  0.14420  0.27980  Biso   1.000  C  0.286673
  C43      1.0000 0.08980  0.09760  0.29260  Biso   1.000  C  -0.199009
  C44      1.0000 0.07450  0.06790  0.33550  Biso   1.000  C  -0.087605
  C45      1.0000 0.03510  0.08310  0.37110  Biso   1.000  C  -0.023127
  C46      1.0000 0.01390  0.12810  0.35650  Biso   1.000  C  -0.063393
  C47      1.0000 0.02740  0.16020  0.31300  Biso   1.000  C  -0.225504
  C48      1.0000 0.02430  0.04710  0.41670  Biso   1.000  C  0.561269
  C49      1.0000 0.19640  0.50680  0.12460  Biso   1.000  C  0.510427
  C50      1.0000 0.27980  0.50880  0.06720  Biso   1.000  C  0.286467
  C51      1.0000 0.29260  0.52000  0.08980  Biso   1.000  C  -0.198692
  C52      1.0000 0.33550  0.52210  0.07450  Biso   1.000  C  -0.088163
  C53      1.0000 0.37110  0.51070  0.03510  Biso   1.000  C  -0.021198
  C54      1.0000 0.35650  0.50150  0.01390  Biso   1.000  C  -0.064330
  C55      1.0000 0.31300  0.49940  0.02740  Biso   1.000  C  -0.225131
  C56      1.0000 0.41670  0.51190  0.02430  Biso   1.000  C  0.557941
  C57      1.0000 0.17220  0.12460  0.50680  Biso   1.000  C  0.510442
  C58      1.0000 0.14420  0.06720  0.50880  Biso   1.000  C  0.286658
  C59      1.0000 0.09760  0.08980  0.52000  Biso   1.000  C  -0.198994
  C60      1.0000 0.06790  0.07450  0.52210  Biso   1.000  C  -0.087634
  C61      1.0000 0.08310  0.03510  0.51070  Biso   1.000  C  -0.023111
  C62      1.0000 0.12810  0.01390  0.50150  Biso   1.000  C  -0.063383
  C63      1.0000 0.16020  0.02740  0.49940  Biso   1.000  C  -0.225521
  C64      1.0000 0.04710  0.02430  0.51190  Biso   1.000  C  0.561273
  C65      1.0000 0.50680  0.17220  0.12460  Biso   1.000  C  0.510452
  C66      1.0000 0.50880  0.14420  0.06720  Biso   1.000  C  0.286656
  C67      1.0000 0.52000  0.09760  0.08980  Biso   1.000  C  -0.198994
  C68      1.0000 0.52210  0.06790  0.07450  Biso   1.000  C  -0.087633
  C69      1.0000 0.51070  0.08310  0.03510  Biso   1.000  C  -0.023109
  C70      1.0000 0.50150  0.12810  0.01390  Biso   1.000  C  -0.063380
  C71      1.0000 0.49940  0.16020  0.02740  Biso   1.000  C  -0.225516
  C72      1.0000 0.51190  0.04710  0.02430  Biso   1.000  C  0.561273
  C73      1.0000 0.12460  0.19640  0.50680  Biso   1.000  C  0.510436
  C74      1.0000 0.06720  0.27980  0.50880  Biso   1.000  C  0.286652
  C75      1.0000 0.08980  0.29260  0.52000  Biso   1.000  C  -0.198982
  C76      1.0000 0.07450  0.33550  0.52210  Biso   1.000  C  -0.087612
  C77      1.0000 0.03510  0.37110  0.51070  Biso   1.000  C  -0.023114
  C78      1.0000 0.01390  0.35650  0.50150  Biso   1.000  C  -0.063379
  C79      1.0000 0.02740  0.31300  0.49940  Biso   1.000  C  -0.225520
  C80      1.0000 0.02430  0.41670  0.51190  Biso   1.000  C  0.561274
  C81      1.0000 0.19640  0.12460  0.17220  Biso   1.000  C  0.510507
  C82      1.0000 0.27980  0.06720  0.14420  Biso   1.000  C  0.286673
  C83      1.0000 0.29260  0.08980  0.09760  Biso   1.000  C  -0.199009
  C84      1.0000 0.33550  0.07450  0.06790  Biso   1.000  C  -0.087606
  C85      1.0000 0.37110  0.03510  0.08310  Biso   1.000  C  -0.023127
  C86      1.0000 0.35650  0.01390  0.12810  Biso   1.000  C  -0.063392
  C87      1.0000 0.31300  0.02740  0.16020  Biso   1.000  C  -0.225503
  C88      1.0000 0.41670  0.02430  0.04710  Biso   1.000  C  0.561269
  C89      1.0000 0.17220  0.50680  0.19640  Biso   1.000  C  0.510436
  C90      1.0000 0.14420  0.50880  0.27980  Biso   1.000  C  0.286649
  C91      1.0000 0.09760  0.52000  0.29260  Biso   1.000  C  -0.198992
  C92      1.0000 0.06790  0.52210  0.33550  Biso   1.000  C  -0.087632
  C93      1.0000 0.08310  0.51070  0.37110  Biso   1.000  C  -0.023107
  C94      1.0000 0.12810  0.50150  0.35650  Biso   1.000  C  -0.063381
  C95      1.0000 0.16020  0.49940  0.31300  Biso   1.000  C  -0.225501
  C96      1.0000 0.04710  0.51190  0.41670  Biso   1.000  C  0.561280
  C97      1.0000 0.49320  0.87540  0.80360  Biso   1.000  C  0.510440
  C98      1.0000 0.49120  0.93280  0.72020  Biso   1.000  C  0.286651
  C99      1.0000 0.48000  0.91020  0.70740  Biso   1.000  C  -0.198984
  C100     1.0000 0.47790  0.92550  0.66450  Biso   1.000  C  -0.087613
  C101     1.0000 0.48930  0.96490  0.62890  Biso   1.000  C  -0.023112
  C102     1.0000 0.49850  0.98610  0.64350  Biso   1.000  C  -0.063378
  C103     1.0000 0.50060  0.97260  0.68700  Biso   1.000  C  -0.225519
  C104     1.0000 0.48810  0.97570  0.58330  Biso   1.000  C  0.561274
  C105     1.0000 0.87540  0.49320  0.82780  Biso   1.000  C  0.510446
  C106     1.0000 0.93280  0.49120  0.85580  Biso   1.000  C  0.286657
  C107     1.0000 0.91020  0.48000  0.90240  Biso   1.000  C  -0.198995
  C108     1.0000 0.92550  0.47790  0.93210  Biso   1.000  C  -0.087635
  C109     1.0000 0.96490  0.48930  0.91690  Biso   1.000  C  -0.023110
  C110     1.0000 0.98610  0.49850  0.87190  Biso   1.000  C  -0.063382
  C111     1.0000 0.97260  0.50060  0.83980  Biso   1.000  C  -0.225518
  C112     1.0000 0.97570  0.48810  0.95290  Biso   1.000  C  0.561273
  C113     1.0000 0.80360  0.82780  0.49320  Biso   1.000  C  0.510427
  C114     1.0000 0.72020  0.85580  0.49120  Biso   1.000  C  0.286652
  C115     1.0000 0.70740  0.90240  0.48000  Biso   1.000  C  -0.198991
  C116     1.0000 0.66450  0.93210  0.47790  Biso   1.000  C  -0.087634
  C117     1.0000 0.62890  0.91690  0.48930  Biso   1.000  C  -0.023111
  C118     1.0000 0.64350  0.87190  0.49850  Biso   1.000  C  -0.063384
  C119     1.0000 0.68700  0.83980  0.50060  Biso   1.000  C  -0.225505
  C120     1.0000 0.58330  0.95290  0.48810  Biso   1.000  C  0.561280
  C121     1.0000 0.82780  0.80360  0.87540  Biso   1.000  C  0.510516
  C122     1.0000 0.85580  0.72020  0.93280  Biso   1.000  C  0.286674
  C123     1.0000 0.90240  0.70740  0.91020  Biso   1.000  C  -0.199009
  C124     1.0000 0.93210  0.66450  0.92550  Biso   1.000  C  -0.087607
  C125     1.0000 0.91690  0.62890  0.96490  Biso   1.000  C  -0.023126
  C126     1.0000 0.87190  0.64350  0.98610  Biso   1.000  C  -0.063396
  C127     1.0000 0.83980  0.68700  0.97260  Biso   1.000  C  -0.225504
  C128     1.0000 0.95290  0.58330  0.97570  Biso   1.000  C  0.561269
  C129     1.0000 0.49320  0.80360  0.82780  Biso   1.000  C  0.510418
  C130     1.0000 0.49120  0.72020  0.85580  Biso   1.000  C  0.286467
  C131     1.0000 0.48000  0.70740  0.90240  Biso   1.000  C  -0.198700
  C132     1.0000 0.47790  0.66450  0.93210  Biso   1.000  C  -0.088184
  C133     1.0000 0.48930  0.62890  0.91690  Biso   1.000  C  -0.021194
  C134     1.0000 0.49850  0.64350  0.87190  Biso   1.000  C  -0.064334
  C135     1.0000 0.50060  0.68700  0.83980  Biso   1.000  C  -0.225115
  C136     1.0000 0.48810  0.58330  0.95290  Biso   1.000  C  0.557947
  C137     1.0000 0.87540  0.82780  0.80360  Biso   1.000  C  0.510511
  C138     1.0000 0.93280  0.85580  0.72020  Biso   1.000  C  0.286673
  C139     1.0000 0.91020  0.90240  0.70740  Biso   1.000  C  -0.199009
  C140     1.0000 0.92550  0.93210  0.66450  Biso   1.000  C  -0.087605
  C141     1.0000 0.96490  0.91690  0.62890  Biso   1.000  C  -0.023127
  C142     1.0000 0.98610  0.87190  0.64350  Biso   1.000  C  -0.063393
  C143     1.0000 0.97260  0.83980  0.68700  Biso   1.000  C  -0.225504
  C144     1.0000 0.97570  0.95290  0.58330  Biso   1.000  C  0.561269
  C145     1.0000 0.80360  0.49320  0.87540  Biso   1.000  C  0.510427
  C146     1.0000 0.72020  0.49120  0.93280  Biso   1.000  C  0.286467
  C147     1.0000 0.70740  0.48000  0.91020  Biso   1.000  C  -0.198692
  C148     1.0000 0.66450  0.47790  0.92550  Biso   1.000  C  -0.088163
  C149     1.0000 0.62890  0.48930  0.96490  Biso   1.000  C  -0.021199
  C150     1.0000 0.64350  0.49850  0.98610  Biso   1.000  C  -0.064330
  C151     1.0000 0.68700  0.50060  0.97260  Biso   1.000  C  -0.225131
  C152     1.0000 0.58330  0.48810  0.97570  Biso   1.000  C  0.557941
  C153     1.0000 0.82780  0.87540  0.49320  Biso   1.000  C  0.510442
  C154     1.0000 0.85580  0.93280  0.49120  Biso   1.000  C  0.286658
  C155     1.0000 0.90240  0.91020  0.48000  Biso   1.000  C  -0.198994
  C156     1.0000 0.93210  0.92550  0.47790  Biso   1.000  C  -0.087634
  C157     1.0000 0.91690  0.96490  0.48930  Biso   1.000  C  -0.023112
  C158     1.0000 0.87190  0.98610  0.49850  Biso   1.000  C  -0.063383
  C159     1.0000 0.83980  0.97260  0.50060  Biso   1.000  C  -0.225521
  C160     1.0000 0.95290  0.97570  0.48810  Biso   1.000  C  0.561273
  C161     1.0000 0.49320  0.82780  0.87540  Biso   1.000  C  0.510452
  C162     1.0000 0.49120  0.85580  0.93280  Biso   1.000  C  0.286656
  C163     1.0000 0.48000  0.90240  0.91020  Biso   1.000  C  -0.198994
  C164     1.0000 0.47790  0.93210  0.92550  Biso   1.000  C  -0.087633
  C165     1.0000 0.48930  0.91690  0.96490  Biso   1.000  C  -0.023109
  C166     1.0000 0.49850  0.87190  0.98610  Biso   1.000  C  -0.063380
  C167     1.0000 0.50060  0.83980  0.97260  Biso   1.000  C  -0.225516
  C168     1.0000 0.48810  0.95290  0.97570  Biso   1.000  C  0.561273
  C169     1.0000 0.87540  0.80360  0.49320  Biso   1.000  C  0.510436
  C170     1.0000 0.93280  0.72020  0.49120  Biso   1.000  C  0.286652
  C171     1.0000 0.91020  0.70740  0.48000  Biso   1.000  C  -0.198982
  C172     1.0000 0.92550  0.66450  0.47790  Biso   1.000  C  -0.087612
  C173     1.0000 0.96490  0.62890  0.48930  Biso   1.000  C  -0.023115
  C174     1.0000 0.98610  0.64350  0.49850  Biso   1.000  C  -0.063379
  C175     1.0000 0.97260  0.68700  0.50060  Biso   1.000  C  -0.225520
  C176     1.0000 0.97570  0.58330  0.48810  Biso   1.000  C  0.561274
  C177     1.0000 0.80360  0.87540  0.82780  Biso   1.000  C  0.510507
  C178     1.0000 0.72020  0.93280  0.85580  Biso   1.000  C  0.286673
  C179     1.0000 0.70740  0.91020  0.90240  Biso   1.000  C  -0.199009
  C180     1.0000 0.66450  0.92550  0.93210  Biso   1.000  C  -0.087606
  C181     1.0000 0.62890  0.96490  0.91690  Biso   1.000  C  -0.023128
  C182     1.0000 0.64350  0.98610  0.87190  Biso   1.000  C  -0.063393
  C183     1.0000 0.68700  0.97260  0.83980  Biso   1.000  C  -0.225503
  C184     1.0000 0.58330  0.97570  0.95290  Biso   1.000  C  0.561269
  C185     1.0000 0.82780  0.49320  0.80360  Biso   1.000  C  0.510436
  C186     1.0000 0.85580  0.49120  0.72020  Biso   1.000  C  0.286649
  C187     1.0000 0.90240  0.48000  0.70740  Biso   1.000  C  -0.198992
  C188     1.0000 0.93210  0.47790  0.66450  Biso   1.000  C  -0.087632
  C189     1.0000 0.91690  0.48930  0.62890  Biso   1.000  C  -0.023107
  C190     1.0000 0.87190  0.49850  0.64350  Biso   1.000  C  -0.063381
  C191     1.0000 0.83980  0.50060  0.68700  Biso   1.000  C  -0.225501
  C192     1.0000 0.95290  0.48810  0.58330  Biso   1.000  C  0.561280
  Cu1      1.0000 0.50993  0.03637  0.49007  Biso   1.000  Cu  0.859057
  Cu2      1.0000 0.03637  0.50993  0.96363  Biso   1.000  Cu  0.859027
  Cu3      1.0000 0.49007  0.96363  0.50993  Biso   1.000  Cu  0.859057
  Cu4      1.0000 0.96363  0.49007  0.03637  Biso   1.000  Cu  0.859027
  Cu5      1.0000 0.50993  0.49007  0.96363  Biso   1.000  Cu  0.837987
  Cu6      1.0000 0.03637  0.96363  0.49007  Biso   1.000  Cu  0.859027
  Cu7      1.0000 0.49007  0.50993  0.03637  Biso   1.000  Cu  0.837987
  Cu8      1.0000 0.96363  0.03637  0.50993  Biso   1.000  Cu  0.859027
  Cu9      1.0000 0.50993  0.96363  0.03637  Biso   1.000  Cu  0.859028
  Cu10     1.0000 0.03637  0.49007  0.50993  Biso   1.000  Cu  0.859057
  Cu11     1.0000 0.49007  0.03637  0.96363  Biso   1.000  Cu  0.859028
  Cu12     1.0000 0.96363  0.50993  0.49007  Biso   1.000  Cu  0.859057
  H1       1.0000 0.51030  0.06230  0.22730  Biso   1.000  H  0.288506
  H2       1.0000 0.52670  0.11730  0.27070  Biso   1.000  H  0.117744
  H3       1.0000 0.53150  0.09090  0.34190  Biso   1.000  H  0.110754
  H4       1.0000 0.49560  0.98600  0.37840  Biso   1.000  H  0.107607
  H5       1.0000 0.49180  0.00960  0.30640  Biso   1.000  H  0.126860
  H6       1.0000 0.06230  0.51030  0.20010  Biso   1.000  H  0.288493
  H7       1.0000 0.11730  0.52670  0.08530  Biso   1.000  H  0.117744
  H8       1.0000 0.09090  0.53150  0.03570  Biso   1.000  H  0.110762
  H9       1.0000 0.98600  0.49560  0.14000  Biso   1.000  H  0.107609
  H10      1.0000 0.00960  0.49180  0.19220  Biso   1.000  H  0.126858
  H11      1.0000 0.22730  0.20010  0.51030  Biso   1.000  H  0.288492
  H12      1.0000 0.27070  0.08530  0.52670  Biso   1.000  H  0.117745
  H13      1.0000 0.34190  0.03570  0.53150  Biso   1.000  H  0.110761
  H14      1.0000 0.37840  0.14000  0.49560  Biso   1.000  H  0.107602
  H15      1.0000 0.30640  0.19220  0.49180  Biso   1.000  H  0.126866
  H16      1.0000 0.20010  0.22730  0.06230  Biso   1.000  H  0.288520
  H17      1.0000 0.08530  0.27070  0.11730  Biso   1.000  H  0.117751
  H18      1.0000 0.03570  0.34190  0.09090  Biso   1.000  H  0.110758
  H19      1.0000 0.14000  0.37840  0.98600  Biso   1.000  H  0.107620
  H20      1.0000 0.19220  0.30640  0.00960  Biso   1.000  H  0.126881
  H21      1.0000 0.51030  0.22730  0.20010  Biso   1.000  H  0.288490
  H22      1.0000 0.52670  0.27070  0.08530  Biso   1.000  H  0.117850
  H23      1.0000 0.53150  0.34190  0.03570  Biso   1.000  H  0.110924
  H24      1.0000 0.49560  0.37840  0.14000  Biso   1.000  H  0.107707
  H25      1.0000 0.49180  0.30640  0.19220  Biso   1.000  H  0.126929
  H26      1.0000 0.06230  0.20010  0.22730  Biso   1.000  H  0.288516
  H27      1.0000 0.11730  0.08530  0.27070  Biso   1.000  H  0.117750
  H28      1.0000 0.09090  0.03570  0.34190  Biso   1.000  H  0.110758
  H29      1.0000 0.98600  0.14000  0.37840  Biso   1.000  H  0.107621
  H30      1.0000 0.00960  0.19220  0.30640  Biso   1.000  H  0.126880
  H31      1.0000 0.22730  0.51030  0.06230  Biso   1.000  H  0.288504
  H32      1.0000 0.27070  0.52670  0.11730  Biso   1.000  H  0.117852
  H33      1.0000 0.34190  0.53150  0.09090  Biso   1.000  H  0.110915
  H34      1.0000 0.37840  0.49560  0.98600  Biso   1.000  H  0.107709
  H35      1.0000 0.30640  0.49180  0.00960  Biso   1.000  H  0.126921
  H36      1.0000 0.20010  0.06230  0.51030  Biso   1.000  H  0.288489
  H37      1.0000 0.08530  0.11730  0.52670  Biso   1.000  H  0.117745
  H38      1.0000 0.03570  0.09090  0.53150  Biso   1.000  H  0.110762
  H39      1.0000 0.14000  0.98600  0.49560  Biso   1.000  H  0.107608
  H40      1.0000 0.19220  0.00960  0.49180  Biso   1.000  H  0.126855
  H41      1.0000 0.51030  0.20010  0.06230  Biso   1.000  H  0.288486
  H42      1.0000 0.52670  0.08530  0.11730  Biso   1.000  H  0.117745
  H43      1.0000 0.53150  0.03570  0.09090  Biso   1.000  H  0.110760
  H44      1.0000 0.49560  0.14000  0.98600  Biso   1.000  H  0.107610
  H45      1.0000 0.49180  0.19220  0.00960  Biso   1.000  H  0.126858
  H46      1.0000 0.06230  0.22730  0.51030  Biso   1.000  H  0.288503
  H47      1.0000 0.11730  0.27070  0.52670  Biso   1.000  H  0.117743
  H48      1.0000 0.09090  0.34190  0.53150  Biso   1.000  H  0.110752
  H49      1.0000 0.98600  0.37840  0.49560  Biso   1.000  H  0.107606
  H50      1.0000 0.00960  0.30640  0.49180  Biso   1.000  H  0.126857
  H51      1.0000 0.22730  0.06230  0.20010  Biso   1.000  H  0.288517
  H52      1.0000 0.27070  0.11730  0.08530  Biso   1.000  H  0.117747
  H53      1.0000 0.34190  0.09090  0.03570  Biso   1.000  H  0.110758
  H54      1.0000 0.37840  0.98600  0.14000  Biso   1.000  H  0.107620
  H55      1.0000 0.30640  0.00960  0.19220  Biso   1.000  H  0.126880
  H56      1.0000 0.20010  0.51030  0.22730  Biso   1.000  H  0.288485
  H57      1.0000 0.08530  0.52670  0.27070  Biso   1.000  H  0.117743
  H58      1.0000 0.03570  0.53150  0.34190  Biso   1.000  H  0.110760
  H59      1.0000 0.14000  0.49560  0.37840  Biso   1.000  H  0.107605
  H60      1.0000 0.19220  0.49180  0.30640  Biso   1.000  H  0.126867
  H61      1.0000 0.48970  0.93770  0.77270  Biso   1.000  H  0.288506
  H62      1.0000 0.47330  0.88270  0.72930  Biso   1.000  H  0.117744
  H63      1.0000 0.46850  0.90910  0.65810  Biso   1.000  H  0.110753
  H64      1.0000 0.50440  0.01400  0.62160  Biso   1.000  H  0.107607
  H65      1.0000 0.50820  0.99040  0.69360  Biso   1.000  H  0.126860
  H66      1.0000 0.93770  0.48970  0.79990  Biso   1.000  H  0.288493
  H67      1.0000 0.88270  0.47330  0.91470  Biso   1.000  H  0.117744
  H68      1.0000 0.90910  0.46850  0.96430  Biso   1.000  H  0.110762
  H69      1.0000 0.01400  0.50440  0.86000  Biso   1.000  H  0.107609
  H70      1.0000 0.99040  0.50820  0.80780  Biso   1.000  H  0.126858
  H71      1.0000 0.77270  0.79990  0.48970  Biso   1.000  H  0.288492
  H72      1.0000 0.72930  0.91470  0.47330  Biso   1.000  H  0.117745
  H73      1.0000 0.65810  0.96430  0.46850  Biso   1.000  H  0.110761
  H74      1.0000 0.62160  0.86000  0.50440  Biso   1.000  H  0.107602
  H75      1.0000 0.69360  0.80780  0.50820  Biso   1.000  H  0.126866
  H76      1.0000 0.79990  0.77270  0.93770  Biso   1.000  H  0.288520
  H77      1.0000 0.91470  0.72930  0.88270  Biso   1.000  H  0.117751
  H78      1.0000 0.96430  0.65810  0.90910  Biso   1.000  H  0.110757
  H79      1.0000 0.86000  0.62160  0.01400  Biso   1.000  H  0.107620
  H80      1.0000 0.80780  0.69360  0.99040  Biso   1.000  H  0.126881
  H81      1.0000 0.48970  0.77270  0.79990  Biso   1.000  H  0.288490
  H82      1.0000 0.47330  0.72930  0.91470  Biso   1.000  H  0.117850
  H83      1.0000 0.46850  0.65810  0.96430  Biso   1.000  H  0.110923
  H84      1.0000 0.50440  0.62160  0.86000  Biso   1.000  H  0.107706
  H85      1.0000 0.50820  0.69360  0.80780  Biso   1.000  H  0.126929
  H86      1.0000 0.93770  0.79990  0.77270  Biso   1.000  H  0.288516
  H87      1.0000 0.88270  0.91470  0.72930  Biso   1.000  H  0.117750
  H88      1.0000 0.90910  0.96430  0.65810  Biso   1.000  H  0.110757
  H89      1.0000 0.01400  0.86000  0.62160  Biso   1.000  H  0.107621
  H90      1.0000 0.99040  0.80780  0.69360  Biso   1.000  H  0.126880
  H91      1.0000 0.77270  0.48970  0.93770  Biso   1.000  H  0.288504
  H92      1.0000 0.72930  0.47330  0.88270  Biso   1.000  H  0.117852
  H93      1.0000 0.65810  0.46850  0.90910  Biso   1.000  H  0.110915
  H94      1.0000 0.62160  0.50440  0.01400  Biso   1.000  H  0.107709
  H95      1.0000 0.69360  0.50820  0.99040  Biso   1.000  H  0.126921
  H96      1.0000 0.79990  0.93770  0.48970  Biso   1.000  H  0.288489
  H97      1.0000 0.91470  0.88270  0.47330  Biso   1.000  H  0.117745
  H98      1.0000 0.96430  0.90910  0.46850  Biso   1.000  H  0.110761
  H99      1.0000 0.86000  0.01400  0.50440  Biso   1.000  H  0.107607
  H100     1.0000 0.80780  0.99040  0.50820  Biso   1.000  H  0.126855
  H101     1.0000 0.48970  0.79990  0.93770  Biso   1.000  H  0.288486
  H102     1.0000 0.47330  0.91470  0.88270  Biso   1.000  H  0.117745
  H103     1.0000 0.46850  0.96430  0.90910  Biso   1.000  H  0.110759
  H104     1.0000 0.50440  0.86000  0.01400  Biso   1.000  H  0.107610
  H105     1.0000 0.50820  0.80780  0.99040  Biso   1.000  H  0.126858
  H106     1.0000 0.93770  0.77270  0.48970  Biso   1.000  H  0.288503
  H107     1.0000 0.88270  0.72930  0.47330  Biso   1.000  H  0.117743
  H108     1.0000 0.90910  0.65810  0.46850  Biso   1.000  H  0.110752
  H109     1.0000 0.01400  0.62160  0.50440  Biso   1.000  H  0.107606
  H110     1.0000 0.99040  0.69360  0.50820  Biso   1.000  H  0.126857
  H111     1.0000 0.77270  0.93770  0.79990  Biso   1.000  H  0.288517
  H112     1.0000 0.72930  0.88270  0.91470  Biso   1.000  H  0.117747
  H113     1.0000 0.65810  0.90910  0.96430  Biso   1.000  H  0.110757
  H114     1.0000 0.62160  0.01400  0.86000  Biso   1.000  H  0.107620
  H115     1.0000 0.69360  0.99040  0.80780  Biso   1.000  H  0.126880
  H116     1.0000 0.79990  0.48970  0.77270  Biso   1.000  H  0.288485
  H117     1.0000 0.91470  0.47330  0.72930  Biso   1.000  H  0.117743
  H118     1.0000 0.96430  0.46850  0.65810  Biso   1.000  H  0.110759
  H119     1.0000 0.86000  0.50440  0.62160  Biso   1.000  H  0.107605
  H120     1.0000 0.80780  0.50820  0.69360  Biso   1.000  H  0.126867
  N1       1.0000 0.50820  0.15720  0.20860  Biso   1.000  N  -0.498457
  N2       1.0000 0.50880  0.08420  0.23360  Biso   1.000  N  -0.395985
  N3       1.0000 0.15720  0.50820  0.12600  Biso   1.000  N  -0.498489
  N4       1.0000 0.08420  0.50880  0.17340  Biso   1.000  N  -0.395986
  N5       1.0000 0.20860  0.12600  0.50820  Biso   1.000  N  -0.498468
  N6       1.0000 0.23360  0.17340  0.50880  Biso   1.000  N  -0.395988
  N7       1.0000 0.12600  0.20860  0.15720  Biso   1.000  N  -0.498542
  N8       1.0000 0.17340  0.23360  0.08420  Biso   1.000  N  -0.396064
  N9       1.0000 0.50820  0.20860  0.12600  Biso   1.000  N  -0.498520
  N10      1.0000 0.50880  0.23360  0.17340  Biso   1.000  N  -0.396037
  N11      1.0000 0.15720  0.12600  0.20860  Biso   1.000  N  -0.498539
  N12      1.0000 0.08420  0.17340  0.23360  Biso   1.000  N  -0.396062
  N13      1.0000 0.20860  0.50820  0.15720  Biso   1.000  N  -0.498500
  N14      1.0000 0.23360  0.50880  0.08420  Biso   1.000  N  -0.396038
  N15      1.0000 0.12600  0.15720  0.50820  Biso   1.000  N  -0.498478
  N16      1.0000 0.17340  0.08420  0.50880  Biso   1.000  N  -0.395988
  N17      1.0000 0.50820  0.12600  0.15720  Biso   1.000  N  -0.498480
  N18      1.0000 0.50880  0.17340  0.08420  Biso   1.000  N  -0.395990
  N19      1.0000 0.15720  0.20860  0.50820  Biso   1.000  N  -0.498447
  N20      1.0000 0.08420  0.23360  0.50880  Biso   1.000  N  -0.395986
  N21      1.0000 0.20860  0.15720  0.12600  Biso   1.000  N  -0.498541
  N22      1.0000 0.23360  0.08420  0.17340  Biso   1.000  N  -0.396062
  N23      1.0000 0.12600  0.50820  0.20860  Biso   1.000  N  -0.498468
  N24      1.0000 0.17340  0.50880  0.23360  Biso   1.000  N  -0.395988
  N25      1.0000 0.49180  0.84280  0.79140  Biso   1.000  N  -0.498457
  N26      1.0000 0.49120  0.91580  0.76640  Biso   1.000  N  -0.395985
  N27      1.0000 0.84280  0.49180  0.87400  Biso   1.000  N  -0.498489
  N28      1.0000 0.91580  0.49120  0.82660  Biso   1.000  N  -0.395986
  N29      1.0000 0.79140  0.87400  0.49180  Biso   1.000  N  -0.498468
  N30      1.0000 0.76640  0.82660  0.49120  Biso   1.000  N  -0.395988
  N31      1.0000 0.87400  0.79140  0.84280  Biso   1.000  N  -0.498542
  N32      1.0000 0.82660  0.76640  0.91580  Biso   1.000  N  -0.396064
  N33      1.0000 0.49180  0.79140  0.87400  Biso   1.000  N  -0.498520
  N34      1.0000 0.49120  0.76640  0.82660  Biso   1.000  N  -0.396037
  N35      1.0000 0.84280  0.87400  0.79140  Biso   1.000  N  -0.498539
  N36      1.0000 0.91580  0.82660  0.76640  Biso   1.000  N  -0.396062
  N37      1.0000 0.79140  0.49180  0.84280  Biso   1.000  N  -0.498500
  N38      1.0000 0.76640  0.49120  0.91580  Biso   1.000  N  -0.396038
  N39      1.0000 0.87400  0.84280  0.49180  Biso   1.000  N  -0.498478
  N40      1.0000 0.82660  0.91580  0.49120  Biso   1.000  N  -0.395988
  N41      1.0000 0.49180  0.87400  0.84280  Biso   1.000  N  -0.498480
  N42      1.0000 0.49120  0.82660  0.91580  Biso   1.000  N  -0.395990
  N43      1.0000 0.84280  0.79140  0.49180  Biso   1.000  N  -0.498447
  N44      1.0000 0.91580  0.76640  0.49120  Biso   1.000  N  -0.395986
  N45      1.0000 0.79140  0.84280  0.87400  Biso   1.000  N  -0.498541
  N46      1.0000 0.76640  0.91580  0.82660  Biso   1.000  N  -0.396062
  N47      1.0000 0.87400  0.49180  0.79140  Biso   1.000  N  -0.498468
  N48      1.0000 0.82660  0.49120  0.76640  Biso   1.000  N  -0.395988
  O1       1.0000 0.52355  0.04561  0.42423  Biso   1.000  O  -0.443731
  O2       1.0000 0.49583  0.98435  0.44919  Biso   1.000  O  -0.602550
  O3       1.0000 0.04561  0.52355  0.00661  Biso   1.000  O  -0.443736
  O4       1.0000 0.98435  0.49583  0.07063  Biso   1.000  O  -0.602511
  O5       1.0000 0.42423  0.00661  0.52355  Biso   1.000  O  -0.443740
  O6       1.0000 0.44919  0.07063  0.49583  Biso   1.000  O  -0.602547
  O7       1.0000 0.00661  0.42423  0.04561  Biso   1.000  O  -0.443722
  O8       1.0000 0.07063  0.44919  0.98435  Biso   1.000  O  -0.602528
  O9       1.0000 0.52355  0.42423  0.00661  Biso   1.000  O  -0.437425
  O10      1.0000 0.49583  0.44919  0.07063  Biso   1.000  O  -0.596254
  O11      1.0000 0.04561  0.00661  0.42423  Biso   1.000  O  -0.443721
  O12      1.0000 0.98435  0.07063  0.44919  Biso   1.000  O  -0.602528
  O13      1.0000 0.42423  0.52355  0.04561  Biso   1.000  O  -0.437417
  O14      1.0000 0.44919  0.49583  0.98435  Biso   1.000  O  -0.596257
  O15      1.0000 0.00661  0.04561  0.52355  Biso   1.000  O  -0.443736
  O16      1.0000 0.07063  0.98435  0.49583  Biso   1.000  O  -0.602512
  O17      1.0000 0.52355  0.00661  0.04561  Biso   1.000  O  -0.443736
  O18      1.0000 0.49583  0.07063  0.98435  Biso   1.000  O  -0.602510
  O19      1.0000 0.04561  0.42423  0.52355  Biso   1.000  O  -0.443732
  O20      1.0000 0.98435  0.44919  0.49583  Biso   1.000  O  -0.602550
  O21      1.0000 0.42423  0.04561  0.00661  Biso   1.000  O  -0.443722
  O22      1.0000 0.44919  0.98435  0.07063  Biso   1.000  O  -0.602528
  O23      1.0000 0.00661  0.52355  0.42423  Biso   1.000  O  -0.443739
  O24      1.0000 0.07063  0.49583  0.44919  Biso   1.000  O  -0.602545
  O25      1.0000 0.47645  0.95439  0.57577  Biso   1.000  O  -0.443731
  O26      1.0000 0.50417  0.01565  0.55081  Biso   1.000  O  -0.602550
  O27      1.0000 0.95439  0.47645  0.99339  Biso   1.000  O  -0.443736
  O28      1.0000 0.01565  0.50417  0.92937  Biso   1.000  O  -0.602512
  O29      1.0000 0.57577  0.99339  0.47645  Biso   1.000  O  -0.443740
  O30      1.0000 0.55081  0.92937  0.50417  Biso   1.000  O  -0.602547
  O31      1.0000 0.99339  0.57577  0.95439  Biso   1.000  O  -0.443722
  O32      1.0000 0.92937  0.55081  0.01565  Biso   1.000  O  -0.602528
  O33      1.0000 0.47645  0.57577  0.99339  Biso   1.000  O  -0.437425
  O34      1.0000 0.50417  0.55081  0.92937  Biso   1.000  O  -0.596254
  O35      1.0000 0.95439  0.99339  0.57577  Biso   1.000  O  -0.443721
  O36      1.0000 0.01565  0.92937  0.55081  Biso   1.000  O  -0.602528
  O37      1.0000 0.57577  0.47645  0.95439  Biso   1.000  O  -0.437417
  O38      1.0000 0.55081  0.50417  0.01565  Biso   1.000  O  -0.596258
  O39      1.0000 0.99339  0.95439  0.47645  Biso   1.000  O  -0.443736
  O40      1.0000 0.92937  0.01565  0.50417  Biso   1.000  O  -0.602512
  O41      1.0000 0.47645  0.99339  0.95439  Biso   1.000  O  -0.443736
  O42      1.0000 0.50417  0.92937  0.01565  Biso   1.000  O  -0.602511
  O43      1.0000 0.95439  0.57577  0.47645  Biso   1.000  O  -0.443732
  O44      1.0000 0.01565  0.55081  0.50417  Biso   1.000  O  -0.602550
  O45      1.0000 0.57577  0.95439  0.99339  Biso   1.000  O  -0.443722
  O46      1.0000 0.55081  0.01565  0.92937  Biso   1.000  O  -0.602528
  O47      1.0000 0.99339  0.47645  0.57577  Biso   1.000  O  -0.443739
  O48      1.0000 0.92937  0.50417  0.55081  Biso   1.000  O  -0.602545
