data_image0
_cell_length_a       28.1527
_cell_length_b       28.1527
_cell_length_c       28.6002
_cell_angle_alpha    119.484
_cell_angle_beta     119.484
_cell_angle_gamma    90

_symmetry_space_group_name_H-M    "P 1"
_symmetry_int_tables_number       1

loop_
  _symmetry_equiv_pos_as_xyz
  'x, y, z'

loop_
  _atom_site_label
  _atom_site_occupancy
  _atom_site_fract_x
  _atom_site_fract_y
  _atom_site_fract_z
  _atom_site_thermal_displace_type
  _atom_site_B_iso_or_equiv
  _atom_site_type_symbol
  _atom_site_charge
  C1       1.0000 0.14490  0.96010  0.74200  Biso   1.000  C  0.598926
  C2       1.0000 0.91410  0.27770  0.86700  Biso   1.000  C  0.004771
  C3       1.0000 0.63683  0.85463  0.61686  Biso   1.000  C  -0.124666
  C4       1.0000 0.90700  0.73920  0.09160  Biso   1.000  C  0.616039
  C5       1.0000 0.10960  0.68260  0.14620  Biso   1.000  C  -0.234198
  C6       1.0000 0.70630  0.40140  0.74520  Biso   1.000  C  0.561298
  C7       1.0000 0.12970  0.68640  0.76940  Biso   1.000  C  0.013587
  C8       1.0000 0.23777  0.36317  0.38314  Biso   1.000  C  -0.124635
  C9       1.0000 0.06180  0.38190  0.08560  Biso   1.000  C  0.600128
  C10      1.0000 0.03890  0.34380  0.74520  Biso   1.000  C  0.561222
  C11      1.0000 0.13460  0.03120  0.46480  Biso   1.000  C  -0.215735
  C12      1.0000 0.97860  0.69190  0.50400  Biso   1.000  C  0.251423
  C13      1.0000 0.21810  0.85510  0.25800  Biso   1.000  C  0.598030
  C14      1.0000 0.86540  0.96880  0.53520  Biso   1.000  C  -0.215740
  C15      1.0000 0.97610  0.52580  0.77280  Biso   1.000  C  -0.197544
  C16      1.0000 0.26760  0.64060  0.71360  Biso   1.000  C  0.532554
  C17      1.0000 0.91700  0.87030  0.23060  Biso   1.000  C  0.010285
  C18      1.0000 0.96340  0.53640  0.85380  Biso   1.000  C  -0.234155
  C19      1.0000 0.12380  0.77820  0.16940  Biso   1.000  C  -0.120586
  C20      1.0000 0.67860  0.65900  0.62020  Biso   1.000  C  0.588636
  C21      1.0000 0.79310  0.03500  0.21640  Biso   1.000  C  0.010711
  C22      1.0000 0.18460  0.35240  0.09160  Biso   1.000  C  0.615994
  C23      1.0000 0.33280  0.44810  0.23980  Biso   1.000  C  0.263069
  C24      1.0000 0.85463  0.98003  0.61686  Biso   1.000  C  -0.123566
  C25      1.0000 0.37950  0.11630  0.41200  Biso   1.000  C  0.021586
  C26      1.0000 0.75300  0.02390  0.22720  Biso   1.000  C  -0.197403
  C27      1.0000 0.57370  0.09830  0.81980  Biso   1.000  C  -0.186062
  C28      1.0000 0.38730  0.22750  0.37920  Biso   1.000  C  0.596891
  C29      1.0000 0.21560  0.40120  0.40960  Biso   1.000  C  0.021021
  C30      1.0000 0.03120  0.33020  0.46480  Biso   1.000  C  -0.215540
  C31      1.0000 0.42330  0.76190  0.76860  Biso   1.000  C  0.555862
  C32      1.0000 0.15170  0.38730  0.37920  Biso   1.000  C  0.596902
  C33      1.0000 0.02390  0.47420  0.22720  Biso   1.000  C  -0.197539
  C34      1.0000 0.72150  0.57370  0.81980  Biso   1.000  C  -0.186044
  C35      1.0000 0.83590  0.26120  0.17580  Biso   1.000  C  -0.116954
  C36      1.0000 0.34650  0.57350  0.59780  Biso   1.000  C  0.542460
  C37      1.0000 0.99160  0.78440  0.59040  Biso   1.000  C  0.017363
  C38      1.0000 0.79670  0.24700  0.77280  Biso   1.000  C  -0.197583
  C39      1.0000 0.59880  0.80600  0.59040  Biso   1.000  C  0.021025
  C40      1.0000 0.76223  0.63683  0.61686  Biso   1.000  C  -0.124634
  C41      1.0000 0.39870  0.65190  0.34800  Biso   1.000  C  0.535124
  C42      1.0000 0.20330  0.75300  0.22720  Biso   1.000  C  -0.197585
  C43      1.0000 0.09830  0.24610  0.81980  Biso   1.000  C  -0.186329
  C44      1.0000 0.98030  0.61140  0.31580  Biso   1.000  C  0.555157
  C45      1.0000 0.08540  0.16410  0.82420  Biso   1.000  C  -0.116028
  C46      1.0000 0.44810  0.90700  0.23980  Biso   1.000  C  0.263085
  C47      1.0000 0.03660  0.46360  0.14620  Biso   1.000  C  -0.234155
  C48      1.0000 0.85510  0.03990  0.25800  Biso   1.000  C  0.598924
  C49      1.0000 0.36030  0.91700  0.23060  Biso   1.000  C  0.013579
  C50      1.0000 0.98003  0.76223  0.61686  Biso   1.000  C  -0.123490
  C51      1.0000 0.34100  0.05840  0.37980  Biso   1.000  C  0.588657
  C52      1.0000 0.31740  0.96340  0.85380  Biso   1.000  C  -0.234222
  C53      1.0000 0.61810  0.97620  0.91440  Biso   1.000  C  0.600125
  C54      1.0000 0.01020  0.24750  0.46600  Biso   1.000  C  -0.189590
  C55      1.0000 0.27770  0.95290  0.86700  Biso   1.000  C  0.004541
  C56      1.0000 0.97620  0.29630  0.91440  Biso   1.000  C  0.600147
  C57      1.0000 0.22750  0.99190  0.37920  Biso   1.000  C  0.596861
  C58      1.0000 0.33020  0.43360  0.46480  Biso   1.000  C  -0.215564
  C59      1.0000 0.29630  0.93820  0.91440  Biso   1.000  C  0.600125
  C60      1.0000 0.06530  0.66220  0.73400  Biso   1.000  C  0.603636
  C61      1.0000 0.52540  0.81210  0.50400  Biso   1.000  C  0.251403
  C62      1.0000 0.33550  0.70440  0.31580  Biso   1.000  C  0.555180
  C63      1.0000 0.00670  0.42330  0.76860  Biso   1.000  C  0.555930
  C64      1.0000 0.47420  0.20330  0.22720  Biso   1.000  C  -0.197516
  C65      1.0000 0.66720  0.55190  0.76020  Biso   1.000  C  0.263060
  C66      1.0000 0.79170  0.33280  0.23980  Biso   1.000  C  0.263057
  C67      1.0000 0.00840  0.21560  0.40960  Biso   1.000  C  0.017359
  C68      1.0000 0.99190  0.15170  0.37920  Biso   1.000  C  0.597789
  C69      1.0000 0.57670  0.81860  0.78360  Biso   1.000  C  0.013881
  C70      1.0000 0.65190  0.94930  0.34800  Biso   1.000  C  0.535093
  C71      1.0000 0.34380  0.70630  0.74520  Biso   1.000  C  0.561288
  C72      1.0000 0.96120  0.67860  0.62020  Biso   1.000  C  0.588654
  C73      1.0000 0.38190  0.02380  0.08560  Biso   1.000  C  0.600125
  C74      1.0000 0.84830  0.61270  0.62080  Biso   1.000  C  0.596903
  C75      1.0000 0.91410  0.84850  0.26340  Biso   1.000  C  -0.232117
  C76      1.0000 0.50690  0.83200  0.80940  Biso   1.000  C  0.280896
  C77      1.0000 0.57350  0.25130  0.59780  Biso   1.000  C  0.542436
  C78      1.0000 0.81540  0.64760  0.90840  Biso   1.000  C  0.616008
  C79      1.0000 0.36317  0.14537  0.38314  Biso   1.000  C  -0.124669
  C80      1.0000 0.59710  0.78190  0.74200  Biso   1.000  C  0.598039
  C81      1.0000 0.87620  0.22180  0.83060  Biso   1.000  C  -0.120575
  C82      1.0000 0.33130  0.92820  0.26600  Biso   1.000  C  0.603621
  C83      1.0000 0.77760  0.24400  0.15100  Biso   1.000  C  0.005181
  C84      1.0000 0.35240  0.90700  0.09160  Biso   1.000  C  0.615907
  C85      1.0000 0.20690  0.96500  0.78360  Biso   1.000  C  0.010710
  C86      1.0000 0.15150  0.65070  0.73660  Biso   1.000  C  -0.231936
  C87      1.0000 0.88370  0.96750  0.58800  Biso   1.000  C  0.018437
  C88      1.0000 0.22180  0.95440  0.83060  Biso   1.000  C  -0.119730
  C89      1.0000 0.95290  0.58930  0.86700  Biso   1.000  C  0.004778
  C90      1.0000 0.61140  0.33550  0.31580  Biso   1.000  C  0.555141
  C91      1.0000 0.39120  0.12380  0.16940  Biso   1.000  C  -0.120588
  C92      1.0000 0.92820  0.93470  0.26600  Biso   1.000  C  0.604584
  C93      1.0000 0.69610  0.39870  0.34800  Biso   1.000  C  0.535109
  C94      1.0000 0.69750  0.02260  0.19060  Biso   1.000  C  0.280743
  C95      1.0000 0.78150  0.98980  0.53400  Biso   1.000  C  -0.189401
  C96      1.0000 0.90700  0.79170  0.23980  Biso   1.000  C  0.262751
  C97      1.0000 0.99330  0.57670  0.23140  Biso   1.000  C  0.555931
  C98      1.0000 0.07180  0.06530  0.73400  Biso   1.000  C  0.604589
  C99      1.0000 0.96500  0.57670  0.78360  Biso   1.000  C  0.013855
  C100     1.0000 0.93820  0.61810  0.91440  Biso   1.000  C  0.600147
  C101     1.0000 0.22240  0.75600  0.84900  Biso   1.000  C  0.005181
  C102     1.0000 0.30390  0.60130  0.65200  Biso   1.000  C  0.535102
  C103     1.0000 0.09300  0.20830  0.76020  Biso   1.000  C  0.262733
  C104     1.0000 0.21850  0.01020  0.46600  Biso   1.000  C  -0.189404
  C105     1.0000 0.53640  0.89040  0.85380  Biso   1.000  C  -0.234156
  C106     1.0000 0.14537  0.01997  0.38314  Biso   1.000  C  -0.123568
  C107     1.0000 0.95440  0.60880  0.83060  Biso   1.000  C  -0.120611
  C108     1.0000 0.63970  0.08300  0.76940  Biso   1.000  C  0.013577
  C109     1.0000 0.84850  0.34930  0.26340  Biso   1.000  C  -0.231941
  C110     1.0000 0.62660  0.09300  0.84900  Biso   1.000  C  0.005210
  C111     1.0000 0.07300  0.26760  0.71360  Biso   1.000  C  0.532545
  C112     1.0000 0.00810  0.84830  0.62080  Biso   1.000  C  0.597788
  C113     1.0000 0.56640  0.86540  0.53520  Biso   1.000  C  -0.215654
  C114     1.0000 0.83200  0.30250  0.80940  Biso   1.000  C  0.280994
  C115     1.0000 0.18140  0.79310  0.21640  Biso   1.000  C  0.013858
  C116     1.0000 0.30250  0.97740  0.80940  Biso   1.000  C  0.280740
  C117     1.0000 0.35940  0.55400  0.28640  Biso   1.000  C  0.532579
  C118     1.0000 0.65350  0.42650  0.40220  Biso   1.000  C  0.542456
  C119     1.0000 0.24750  0.45580  0.46600  Biso   1.000  C  -0.189458
  C120     1.0000 0.70370  0.06180  0.08560  Biso   1.000  C  0.600125
  C121     1.0000 0.77250  0.00810  0.62080  Biso   1.000  C  0.596858
  C122     1.0000 0.03880  0.32140  0.37980  Biso   1.000  C  0.588655
  C123     1.0000 0.04560  0.39120  0.16940  Biso   1.000  C  -0.120594
  C124     1.0000 0.58930  0.91410  0.86700  Biso   1.000  C  0.004787
  C125     1.0000 0.31360  0.36030  0.23060  Biso   1.000  C  0.013530
  C126     1.0000 0.96880  0.66980  0.53520  Biso   1.000  C  -0.215539
  C127     1.0000 0.65070  0.58510  0.73660  Biso   1.000  C  -0.231948
  C128     1.0000 0.41490  0.91410  0.26340  Biso   1.000  C  -0.231951
  C129     1.0000 0.26080  0.81540  0.90840  Biso   1.000  C  0.615978
  C130     1.0000 0.54420  0.78150  0.53400  Biso   1.000  C  -0.189407
  C131     1.0000 0.96010  0.59710  0.74200  Biso   1.000  C  0.598055
  C132     1.0000 0.78440  0.59880  0.59040  Biso   1.000  C  0.021026
  C133     1.0000 0.66010  0.08540  0.82420  Biso   1.000  C  -0.116942
  C134     1.0000 0.42630  0.90170  0.18020  Biso   1.000  C  -0.186061
  C135     1.0000 0.42330  0.18140  0.21640  Biso   1.000  C  0.013877
  C136     1.0000 0.16410  0.73880  0.82420  Biso   1.000  C  -0.116941
  C137     1.0000 0.29370  0.59860  0.25480  Biso   1.000  C  0.561294
  C138     1.0000 0.93470  0.33780  0.26600  Biso   1.000  C  0.603633
  C139     1.0000 0.40120  0.19400  0.40960  Biso   1.000  C  0.021026
  C140     1.0000 0.02140  0.30810  0.49600  Biso   1.000  C  0.251413
  C141     1.0000 0.05840  0.03880  0.37980  Biso   1.000  C  0.589678
  C142     1.0000 0.02380  0.70370  0.08560  Biso   1.000  C  0.600160
  C143     1.0000 0.03990  0.40290  0.25800  Biso   1.000  C  0.598044
  C144     1.0000 0.45580  0.21850  0.46600  Biso   1.000  C  -0.189390
  C145     1.0000 0.94930  0.69610  0.34800  Biso   1.000  C  0.535092
  C146     1.0000 0.55400  0.92700  0.28640  Biso   1.000  C  0.532558
  C147     1.0000 0.89040  0.31740  0.85380  Biso   1.000  C  -0.234199
  C148     1.0000 0.44600  0.07300  0.71360  Biso   1.000  C  0.532560
  C149     1.0000 0.32140  0.34100  0.37980  Biso   1.000  C  0.588633
  C150     1.0000 0.33990  0.91460  0.17580  Biso   1.000  C  -0.116940
  C151     1.0000 0.62050  0.88370  0.58800  Biso   1.000  C  0.021592
  C152     1.0000 0.49310  0.16800  0.19060  Biso   1.000  C  0.280896
  C153     1.0000 0.90170  0.75390  0.18020  Biso   1.000  C  -0.186332
  C154     1.0000 0.73240  0.35940  0.28640  Biso   1.000  C  0.532552
  C155     1.0000 0.90700  0.77760  0.15100  Biso   1.000  C  0.004902
  C156     1.0000 0.65620  0.29370  0.25480  Biso   1.000  C  0.561286
  C157     1.0000 0.60880  0.87620  0.83060  Biso   1.000  C  -0.120588
  C158     1.0000 0.40140  0.03890  0.74520  Biso   1.000  C  0.561264
  C159     1.0000 0.24700  0.97610  0.77280  Biso   1.000  C  -0.197399
  C160     1.0000 0.29560  0.01970  0.68420  Biso   1.000  C  0.555188
  C161     1.0000 0.75390  0.27850  0.18020  Biso   1.000  C  -0.186047
  C162     1.0000 0.73880  0.66010  0.82420  Biso   1.000  C  -0.116931
  C163     1.0000 0.04710  0.41070  0.13300  Biso   1.000  C  0.004789
  C164     1.0000 0.19400  0.00840  0.40960  Biso   1.000  C  0.020884
  C165     1.0000 0.38860  0.66450  0.68420  Biso   1.000  C  0.555136
  C166     1.0000 0.08590  0.15150  0.73660  Biso   1.000  C  -0.232126
  C167     1.0000 0.64060  0.44600  0.71360  Biso   1.000  C  0.532577
  C168     1.0000 0.42650  0.74870  0.40220  Biso   1.000  C  0.542427
  C169     1.0000 0.52580  0.79670  0.77280  Biso   1.000  C  -0.197521
  C170     1.0000 0.75250  0.54420  0.53400  Biso   1.000  C  -0.189457
  C171     1.0000 0.33780  0.33130  0.26600  Biso   1.000  C  0.603625
  C172     1.0000 0.80600  0.99160  0.59040  Biso   1.000  C  0.020884
  C173     1.0000 0.11630  0.03250  0.41200  Biso   1.000  C  0.018440
  C174     1.0000 0.87030  0.31360  0.23060  Biso   1.000  C  0.013601
  C175     1.0000 0.69190  0.52540  0.50400  Biso   1.000  C  0.251377
  C176     1.0000 0.75600  0.62660  0.84900  Biso   1.000  C  0.005194
  C177     1.0000 0.78190  0.14490  0.74200  Biso   1.000  C  0.598018
  C178     1.0000 0.58510  0.08590  0.73660  Biso   1.000  C  -0.231949
  C179     1.0000 0.59860  0.96110  0.25480  Biso   1.000  C  0.561263
  C180     1.0000 0.57670  0.23810  0.23140  Biso   1.000  C  0.555857
  C181     1.0000 0.29570  0.37950  0.41200  Biso   1.000  C  0.021559
  C182     1.0000 0.09300  0.26080  0.90840  Biso   1.000  C  0.616057
  C183     1.0000 0.77820  0.04560  0.16940  Biso   1.000  C  -0.119730
  C184     1.0000 0.72230  0.04710  0.13300  Biso   1.000  C  0.004541
  C185     1.0000 0.97740  0.50690  0.80940  Biso   1.000  C  0.280866
  C186     1.0000 0.81860  0.20690  0.78360  Biso   1.000  C  0.013867
  C187     1.0000 0.18790  0.02140  0.49600  Biso   1.000  C  0.251234
  C188     1.0000 0.74870  0.97570  0.40220  Biso   1.000  C  0.542472
  C189     1.0000 0.65900  0.94160  0.62020  Biso   1.000  C  0.588654
  C190     1.0000 0.02430  0.34650  0.59780  Biso   1.000  C  0.542431
  C191     1.0000 0.24610  0.72150  0.81980  Biso   1.000  C  -0.186040
  C192     1.0000 0.01997  0.23777  0.38314  Biso   1.000  C  -0.123498
  C193     1.0000 0.96110  0.65620  0.25480  Biso   1.000  C  0.561222
  C194     1.0000 0.98980  0.75250  0.53400  Biso   1.000  C  -0.189594
  C195     1.0000 0.34530  0.00670  0.76860  Biso   1.000  C  0.556099
  C196     1.0000 0.41070  0.08590  0.13300  Biso   1.000  C  0.004785
  C197     1.0000 0.02260  0.49310  0.19060  Biso   1.000  C  0.280872
  C198     1.0000 0.09300  0.22240  0.84900  Biso   1.000  C  0.004877
  C199     1.0000 0.68640  0.63970  0.76940  Biso   1.000  C  0.013547
  C200     1.0000 0.97570  0.65350  0.40220  Biso   1.000  C  0.542429
  C201     1.0000 0.92700  0.73240  0.28640  Biso   1.000  C  0.532546
  C202     1.0000 0.01970  0.38860  0.68420  Biso   1.000  C  0.555149
  C203     1.0000 0.40290  0.21810  0.25800  Biso   1.000  C  0.598037
  C204     1.0000 0.03250  0.29570  0.41200  Biso   1.000  C  0.021484
  C205     1.0000 0.46360  0.10960  0.14620  Biso   1.000  C  -0.234156
  C206     1.0000 0.68260  0.03660  0.14620  Biso   1.000  C  -0.234224
  C207     1.0000 0.08590  0.72230  0.13300  Biso   1.000  C  0.004761
  C208     1.0000 0.66450  0.29560  0.68420  Biso   1.000  C  0.555178
  C209     1.0000 0.26120  0.33990  0.17580  Biso   1.000  C  -0.116889
  C210     1.0000 0.16800  0.69750  0.19060  Biso   1.000  C  0.280987
  C211     1.0000 0.81210  0.97860  0.50400  Biso   1.000  C  0.251230
  C212     1.0000 0.08300  0.12970  0.76940  Biso   1.000  C  0.010280
  C213     1.0000 0.24400  0.37340  0.15100  Biso   1.000  C  0.005191
  C214     1.0000 0.70430  0.62050  0.58800  Biso   1.000  C  0.021560
  C215     1.0000 0.64760  0.09300  0.90840  Biso   1.000  C  0.615906
  C216     1.0000 0.37340  0.90700  0.15100  Biso   1.000  C  0.005210
  C217     1.0000 0.27850  0.42630  0.18020  Biso   1.000  C  -0.186034
  C218     1.0000 0.55190  0.09300  0.76020  Biso   1.000  C  0.263076
  C219     1.0000 0.05070  0.30390  0.65200  Biso   1.000  C  0.535085
  C220     1.0000 0.20830  0.66720  0.76020  Biso   1.000  C  0.263052
  C221     1.0000 0.91460  0.83590  0.17580  Biso   1.000  C  -0.115987
  C222     1.0000 0.43360  0.13460  0.46480  Biso   1.000  C  -0.215651
  C223     1.0000 0.61270  0.77250  0.62080  Biso   1.000  C  0.596891
  C224     1.0000 0.66870  0.07180  0.73400  Biso   1.000  C  0.603616
  C225     1.0000 0.94160  0.96120  0.62020  Biso   1.000  C  0.589684
  C226     1.0000 0.23810  0.65470  0.23140  Biso   1.000  C  0.556039
  C227     1.0000 0.34930  0.41490  0.26340  Biso   1.000  C  -0.231948
  C228     1.0000 0.03500  0.42330  0.21640  Biso   1.000  C  0.013867
  C229     1.0000 0.47460  0.18790  0.49600  Biso   1.000  C  0.251397
  C230     1.0000 0.25130  0.02430  0.59780  Biso   1.000  C  0.542471
  C231     1.0000 0.60130  0.34810  0.65200  Biso   1.000  C  0.535113
  C232     1.0000 0.76190  0.34530  0.76860  Biso   1.000  C  0.556040
  C233     1.0000 0.70440  0.98030  0.31580  Biso   1.000  C  0.555183
  C234     1.0000 0.96750  0.70430  0.58800  Biso   1.000  C  0.021492
  C235     1.0000 0.66980  0.56640  0.53520  Biso   1.000  C  -0.215560
  C236     1.0000 0.73920  0.18460  0.09160  Biso   1.000  C  0.615978
  C237     1.0000 0.30810  0.47460  0.49600  Biso   1.000  C  0.251372
  C238     1.0000 0.65470  0.99330  0.23140  Biso   1.000  C  0.556099
  C239     1.0000 0.34810  0.05070  0.65200  Biso   1.000  C  0.535085
  C240     1.0000 0.66220  0.66870  0.73400  Biso   1.000  C  0.603636
  Cu1      1.0000 0.06960  0.27523  0.00000  Biso   1.000  Cu  0.887422
  Cu2      1.0000 0.41241  0.31720  0.36426  Biso   1.000  Cu  0.871400
  Cu3      1.0000 0.96434  0.03618  0.27380  Biso   1.000  Cu  0.870283
  Cu4      1.0000 0.03566  0.96382  0.72620  Biso   1.000  Cu  0.870263
  Cu5      1.0000 0.95294  0.58759  0.63574  Biso   1.000  Cu  0.871248
  Cu6      1.0000 0.93040  0.72477  0.00000  Biso   1.000  Cu  0.887437
  Cu7      1.0000 0.90921  0.63314  0.00000  Biso   1.000  Cu  0.886251
  Cu8      1.0000 0.63314  0.09079  0.00000  Biso   1.000  Cu  0.886259
  Cu9      1.0000 0.09079  0.36686  0.00000  Biso   1.000  Cu  0.886193
  Cu10     1.0000 0.36686  0.90921  0.00000  Biso   1.000  Cu  0.886259
  Cu11     1.0000 0.30946  0.23762  0.27380  Biso   1.000  Cu  0.872919
  Cu12     1.0000 0.31720  0.95185  0.36426  Biso   1.000  Cu  0.871298
  Cu13     1.0000 0.76238  0.03566  0.72620  Biso   1.000  Cu  0.872936
  Cu14     1.0000 0.27523  0.93040  0.00000  Biso   1.000  Cu  0.887429
  Cu15     1.0000 0.95185  0.04706  0.36426  Biso   1.000  Cu  0.887936
  Cu16     1.0000 0.23762  0.96434  0.27380  Biso   1.000  Cu  0.872931
  Cu17     1.0000 0.96382  0.69054  0.72620  Biso   1.000  Cu  0.872928
  Cu18     1.0000 0.68280  0.04815  0.63574  Biso   1.000  Cu  0.871199
  Cu19     1.0000 0.03618  0.30946  0.27380  Biso   1.000  Cu  0.872939
  Cu20     1.0000 0.04706  0.41241  0.36426  Biso   1.000  Cu  0.871171
  Cu21     1.0000 0.04815  0.95294  0.63574  Biso   1.000  Cu  0.888039
  Cu22     1.0000 0.58759  0.68280  0.63574  Biso   1.000  Cu  0.871483
  Cu23     1.0000 0.72477  0.06960  0.00000  Biso   1.000  Cu  0.887428
  Cu24     1.0000 0.69054  0.76238  0.72620  Biso   1.000  Cu  0.872895
  H1       1.0000 0.37860  0.99290  0.83240  Biso   1.000  H  0.315379
  H2       1.0000 0.44440  0.11210  0.48120  Biso   1.000  H  0.136926
  H3       1.0000 0.12710  0.61490  0.69780  Biso   1.000  H  0.137377
  H4       1.0000 0.57070  0.08290  0.69780  Biso   1.000  H  0.137395
  H5       1.0000 0.61490  0.57070  0.69780  Biso   1.000  H  0.137371
  H6       1.0000 0.63090  0.55560  0.51880  Biso   1.000  H  0.136916
  H7       1.0000 0.16050  0.62140  0.16760  Biso   1.000  H  0.315402
  H8       1.0000 0.89500  0.71460  0.16200  Biso   1.000  H  0.143884
  H9       1.0000 0.89010  0.78870  0.29620  Biso   1.000  H  0.312855
  H10      1.0000 0.69630  0.08200  0.84540  Biso   1.000  H  0.138790
  H11      1.0000 0.99290  0.45380  0.83240  Biso   1.000  H  0.315409
  H12      1.0000 0.00710  0.54620  0.16760  Biso   1.000  H  0.315412
  H13      1.0000 0.76350  0.01720  0.25920  Biso   1.000  H  0.135245
  H14      1.0000 0.59390  0.49250  0.70380  Biso   1.000  H  0.313012
  H15      1.0000 0.75800  0.23650  0.74080  Biso   1.000  H  0.135582
  H16      1.0000 0.23660  0.30370  0.15460  Biso   1.000  H  0.138782
  H17      1.0000 0.35400  0.96090  0.87520  Biso   1.000  H  0.134089
  H18      1.0000 0.78570  0.67360  0.65400  Biso   1.000  H  0.141936
  H19      1.0000 0.98280  0.50430  0.74080  Biso   1.000  H  0.135580
  H20      1.0000 0.36910  0.44440  0.48120  Biso   1.000  H  0.136915
  H21      1.0000 0.01720  0.49570  0.25920  Biso   1.000  H  0.135582
  H22      1.0000 0.88790  0.96320  0.51880  Biso   1.000  H  0.136471
  H23      1.0000 0.73300  0.55260  0.83800  Biso   1.000  H  0.143979
  H24      1.0000 0.10990  0.80540  0.16180  Biso   1.000  H  0.138762
  H25      1.0000 0.01960  0.21430  0.34600  Biso   1.000  H  0.141703
  H26      1.0000 0.08570  0.64600  0.12480  Biso   1.000  H  0.134135
  H27      1.0000 0.76340  0.69630  0.84540  Biso   1.000  H  0.138786
  H28      1.0000 0.01070  0.37780  0.55020  Biso   1.000  H  0.311589
  H29      1.0000 0.03910  0.47880  0.12480  Biso   1.000  H  0.134144
  H30      1.0000 0.19460  0.94810  0.83820  Biso   1.000  H  0.138552
  H31      1.0000 0.64600  0.03910  0.12480  Biso   1.000  H  0.134088
  H32      1.0000 0.05190  0.35640  0.16180  Biso   1.000  H  0.138753
  H33      1.0000 0.96320  0.63090  0.51880  Biso   1.000  H  0.136941
  H34      1.0000 0.89010  0.19460  0.83820  Biso   1.000  H  0.138764
  H35      1.0000 0.78870  0.40610  0.29620  Biso   1.000  H  0.313012
  H36      1.0000 0.42930  0.91710  0.30220  Biso   1.000  H  0.137397
  H37      1.0000 0.71460  0.26700  0.16200  Biso   1.000  H  0.143978
  H38      1.0000 0.45380  0.83950  0.83240  Biso   1.000  H  0.315399
  H39      1.0000 0.50750  0.89010  0.29620  Biso   1.000  H  0.313044
  H40      1.0000 0.49570  0.24200  0.25920  Biso   1.000  H  0.135584
  H41      1.0000 0.53950  0.17240  0.55020  Biso   1.000  H  0.311590
  H42      1.0000 0.62140  0.00710  0.16760  Biso   1.000  H  0.315378
  H43      1.0000 0.14910  0.76340  0.84540  Biso   1.000  H  0.138788
  H44      1.0000 0.91800  0.85090  0.15460  Biso   1.000  H  0.138509
  H45      1.0000 0.62220  0.46050  0.44980  Biso   1.000  H  0.311605
  H46      1.0000 0.23010  0.47960  0.48400  Biso   1.000  H  0.144224
  H47      1.0000 0.74610  0.99560  0.51600  Biso   1.000  H  0.144184
  H48      1.0000 0.94810  0.64360  0.83820  Biso   1.000  H  0.138749
  H49      1.0000 0.49250  0.10990  0.70380  Biso   1.000  H  0.313043
  H50      1.0000 0.24200  0.76350  0.25920  Biso   1.000  H  0.135581
  H51      1.0000 0.96090  0.52120  0.87520  Biso   1.000  H  0.134139
  H52      1.0000 0.38510  0.42930  0.30220  Biso   1.000  H  0.137374
  H53      1.0000 0.25390  0.00440  0.48400  Biso   1.000  H  0.144184
  H54      1.0000 0.37780  0.53950  0.55020  Biso   1.000  H  0.311604
  H55      1.0000 0.47880  0.08570  0.12480  Biso   1.000  H  0.134143
  H56      1.0000 0.47960  0.25390  0.48400  Biso   1.000  H  0.144190
  H57      1.0000 0.87290  0.38510  0.30220  Biso   1.000  H  0.137375
  H58      1.0000 0.28540  0.73300  0.83800  Biso   1.000  H  0.143978
  H59      1.0000 0.26700  0.44740  0.16200  Biso   1.000  H  0.143983
  H60      1.0000 0.30370  0.91800  0.15460  Biso   1.000  H  0.138790
  H61      1.0000 0.21130  0.59390  0.70380  Biso   1.000  H  0.313014
  H62      1.0000 0.52040  0.74610  0.51600  Biso   1.000  H  0.144189
  H63      1.0000 0.44740  0.89500  0.16200  Biso   1.000  H  0.143967
  H64      1.0000 0.55560  0.88790  0.51880  Biso   1.000  H  0.136925
  H65      1.0000 0.67360  0.86830  0.65400  Biso   1.000  H  0.141951
  H66      1.0000 0.10990  0.21130  0.70380  Biso   1.000  H  0.312850
  H67      1.0000 0.03680  0.36910  0.48120  Biso   1.000  H  0.136937
  H68      1.0000 0.86830  0.98040  0.65400  Biso   1.000  H  0.141760
  H69      1.0000 0.80540  0.05190  0.16180  Biso   1.000  H  0.138553
  H70      1.0000 0.17240  0.01070  0.55020  Biso   1.000  H  0.311330
  H71      1.0000 0.08200  0.14910  0.84540  Biso   1.000  H  0.138507
  H72      1.0000 0.82760  0.98930  0.44980  Biso   1.000  H  0.311329
  H73      1.0000 0.83950  0.37860  0.83240  Biso   1.000  H  0.315404
  H74      1.0000 0.99560  0.76990  0.51600  Biso   1.000  H  0.143933
  H75      1.0000 0.35640  0.10990  0.16180  Biso   1.000  H  0.138755
  H76      1.0000 0.46050  0.82760  0.44980  Biso   1.000  H  0.311590
  H77      1.0000 0.91430  0.35400  0.87520  Biso   1.000  H  0.134137
  H78      1.0000 0.10500  0.28540  0.83800  Biso   1.000  H  0.143876
  H79      1.0000 0.55260  0.10500  0.83800  Biso   1.000  H  0.143966
  H80      1.0000 0.76990  0.52040  0.51600  Biso   1.000  H  0.144225
  H81      1.0000 0.08290  0.12710  0.69780  Biso   1.000  H  0.136828
  H82      1.0000 0.64360  0.89010  0.83820  Biso   1.000  H  0.138756
  H83      1.0000 0.91710  0.87290  0.30220  Biso   1.000  H  0.136836
  H84      1.0000 0.98930  0.62220  0.44980  Biso   1.000  H  0.311592
  H85      1.0000 0.54620  0.16050  0.16760  Biso   1.000  H  0.315398
  H86      1.0000 0.32640  0.13170  0.34600  Biso   1.000  H  0.141952
  H87      1.0000 0.52120  0.91430  0.87520  Biso   1.000  H  0.134142
  H88      1.0000 0.21430  0.32640  0.34600  Biso   1.000  H  0.141934
  H89      1.0000 0.85090  0.23660  0.15460  Biso   1.000  H  0.138788
  H90      1.0000 0.13170  0.01960  0.34600  Biso   1.000  H  0.141761
  H91      1.0000 0.23650  0.98280  0.74080  Biso   1.000  H  0.135245
  H92      1.0000 0.50430  0.75800  0.74080  Biso   1.000  H  0.135585
  H93      1.0000 0.00440  0.23010  0.48400  Biso   1.000  H  0.143931
  H94      1.0000 0.98040  0.78570  0.65400  Biso   1.000  H  0.141707
  H95      1.0000 0.40610  0.50750  0.29620  Biso   1.000  H  0.313013
  H96      1.0000 0.11210  0.03680  0.48120  Biso   1.000  H  0.136473
  N1       1.0000 0.30340  0.55810  0.60300  Biso   1.000  N  -0.497124
  N2       1.0000 0.04490  0.30340  0.60300  Biso   1.000  N  -0.497597
  N3       1.0000 0.22770  0.62990  0.72340  Biso   1.000  N  -0.390830
  N4       1.0000 0.62990  0.49570  0.72340  Biso   1.000  N  -0.390839
  N5       1.0000 0.18680  0.65440  0.19420  Biso   1.000  N  -0.360646
  N6       1.0000 0.46020  0.81320  0.80580  Biso   1.000  N  -0.360532
  N7       1.0000 0.20150  0.01810  0.54940  Biso   1.000  N  -0.387538
  N8       1.0000 0.92750  0.73290  0.33620  Biso   1.000  N  -0.538809
  N9       1.0000 0.97370  0.61760  0.21940  Biso   1.000  N  -0.555803
  N10      1.0000 0.39820  0.02630  0.78060  Biso   1.000  N  -0.555897
  N11      1.0000 0.65090  0.96150  0.30580  Biso   1.000  N  -0.302603
  N12      1.0000 0.03850  0.34510  0.69420  Biso   1.000  N  -0.302603
  N13      1.0000 0.42390  0.71550  0.71840  Biso   1.000  N  -0.517889
  N14      1.0000 0.00290  0.42390  0.71840  Biso   1.000  N  -0.517962
  N15      1.0000 0.77230  0.37010  0.27660  Biso   1.000  N  -0.390830
  N16      1.0000 0.95510  0.69660  0.39700  Biso   1.000  N  -0.497595
  N17      1.0000 0.53130  0.20150  0.54940  Biso   1.000  N  -0.387440
  N18      1.0000 0.34910  0.03850  0.69420  Biso   1.000  N  -0.302602
  N19      1.0000 0.98190  0.65210  0.45060  Biso   1.000  N  -0.387515
  N20      1.0000 0.98620  0.61070  0.36220  Biso   1.000  N  -0.527230
  N21      1.0000 0.34790  0.53130  0.54940  Biso   1.000  N  -0.387465
  N22      1.0000 0.38930  0.62400  0.63780  Biso   1.000  N  -0.527259
  N23      1.0000 0.65440  0.00740  0.19420  Biso   1.000  N  -0.360601
  N24      1.0000 0.73290  0.40870  0.33620  Biso   1.000  N  -0.538322
  N25      1.0000 0.90650  0.77230  0.27660  Biso   1.000  N  -0.390899
  N26      1.0000 0.62400  0.24850  0.63780  Biso   1.000  N  -0.527252
  N27      1.0000 0.28450  0.70550  0.28160  Biso   1.000  N  -0.517940
  N28      1.0000 0.79850  0.98190  0.45060  Biso   1.000  N  -0.387537
  N29      1.0000 0.37600  0.75150  0.36220  Biso   1.000  N  -0.527252
  N30      1.0000 0.29960  0.04490  0.60300  Biso   1.000  N  -0.497085
  N31      1.0000 0.26710  0.59130  0.66380  Biso   1.000  N  -0.538319
  N32      1.0000 0.44880  0.05740  0.75380  Biso   1.000  N  -0.506820
  N33      1.0000 0.01380  0.38930  0.63780  Biso   1.000  N  -0.527237
  N34      1.0000 0.46870  0.79850  0.45060  Biso   1.000  N  -0.387439
  N35      1.0000 0.65570  0.34910  0.69420  Biso   1.000  N  -0.302655
  N36      1.0000 0.69660  0.44190  0.39700  Biso   1.000  N  -0.497128
  N37      1.0000 0.65210  0.46870  0.45060  Biso   1.000  N  -0.387465
  N38      1.0000 0.50430  0.90650  0.27660  Biso   1.000  N  -0.390839
  N39      1.0000 0.71550  0.29450  0.71840  Biso   1.000  N  -0.517942
  N40      1.0000 0.69500  0.30360  0.24620  Biso   1.000  N  -0.506894
  N41      1.0000 0.39670  0.07250  0.66380  Biso   1.000  N  -0.538285
  N42      1.0000 0.49570  0.09350  0.72340  Biso   1.000  N  -0.390837
  N43      1.0000 0.05740  0.30500  0.75380  Biso   1.000  N  -0.506691
  N44      1.0000 0.69640  0.44880  0.75380  Biso   1.000  N  -0.506873
  N45      1.0000 0.38240  0.75430  0.78060  Biso   1.000  N  -0.555855
  N46      1.0000 0.01810  0.34790  0.54940  Biso   1.000  N  -0.387517
  N47      1.0000 0.55810  0.29960  0.60300  Biso   1.000  N  -0.497150
  N48      1.0000 0.60180  0.97370  0.21940  Biso   1.000  N  -0.555898
  N49      1.0000 0.07250  0.26710  0.66380  Biso   1.000  N  -0.538815
  N50      1.0000 0.60330  0.92750  0.33620  Biso   1.000  N  -0.538282
  N51      1.0000 0.34560  0.99260  0.80580  Biso   1.000  N  -0.360601
  N52      1.0000 0.94260  0.69500  0.24620  Biso   1.000  N  -0.506695
  N53      1.0000 0.96150  0.65490  0.30580  Biso   1.000  N  -0.302602
  N54      1.0000 0.44190  0.70040  0.39700  Biso   1.000  N  -0.497149
  N55      1.0000 0.40870  0.60330  0.33620  Biso   1.000  N  -0.538317
  N56      1.0000 0.70550  0.99710  0.28160  Biso   1.000  N  -0.518255
  N57      1.0000 0.81320  0.34560  0.80580  Biso   1.000  N  -0.360648
  N58      1.0000 0.29450  0.00290  0.71840  Biso   1.000  N  -0.518257
  N59      1.0000 0.70040  0.95510  0.39700  Biso   1.000  N  -0.497083
  N60      1.0000 0.55120  0.94260  0.24620  Biso   1.000  N  -0.506823
  N61      1.0000 0.24570  0.60180  0.21940  Biso   1.000  N  -0.555969
  N62      1.0000 0.30500  0.69640  0.75380  Biso   1.000  N  -0.506897
  N63      1.0000 0.53980  0.18680  0.19420  Biso   1.000  N  -0.360531
  N64      1.0000 0.00740  0.53980  0.19420  Biso   1.000  N  -0.360543
  N65      1.0000 0.61760  0.24570  0.21940  Biso   1.000  N  -0.555853
  N66      1.0000 0.75150  0.98620  0.36220  Biso   1.000  N  -0.527732
  N67      1.0000 0.30360  0.55120  0.24620  Biso   1.000  N  -0.506878
  N68      1.0000 0.61070  0.37600  0.36220  Biso   1.000  N  -0.527259
  N69      1.0000 0.59130  0.39670  0.66380  Biso   1.000  N  -0.538316
  N70      1.0000 0.75430  0.39820  0.78060  Biso   1.000  N  -0.555965
  N71      1.0000 0.57610  0.28450  0.28160  Biso   1.000  N  -0.517889
  N72      1.0000 0.09350  0.22770  0.72340  Biso   1.000  N  -0.390898
  N73      1.0000 0.02630  0.38240  0.78060  Biso   1.000  N  -0.555809
  N74      1.0000 0.65490  0.34430  0.30580  Biso   1.000  N  -0.302615
  N75      1.0000 0.99260  0.46020  0.80580  Biso   1.000  N  -0.360543
  N76      1.0000 0.34430  0.65090  0.30580  Biso   1.000  N  -0.302656
  N77      1.0000 0.37010  0.50430  0.27660  Biso   1.000  N  -0.390841
  N78      1.0000 0.99710  0.57610  0.28160  Biso   1.000  N  -0.517961
  N79      1.0000 0.24850  0.01380  0.63780  Biso   1.000  N  -0.527732
  N80      1.0000 0.34510  0.65570  0.69420  Biso   1.000  N  -0.302614
  O1       1.0000 0.95059  0.62495  0.59346  Biso   1.000  O  -0.532947
  O2       1.0000 0.04941  0.37505  0.40654  Biso   1.000  O  -0.532974
  O3       1.0000 0.35713  0.03149  0.40654  Biso   1.000  O  -0.533113
  O4       1.0000 0.94276  0.67170  0.93360  Biso   1.000  O  -0.545844
  O5       1.0000 0.28570  0.29223  0.32660  Biso   1.000  O  -0.522392
  O6       1.0000 0.92477  0.59457  0.93494  Biso   1.000  O  -0.522547
  O7       1.0000 0.37505  0.35713  0.40654  Biso   1.000  O  -0.533117
  O8       1.0000 0.80414  0.11525  0.76650  Biso   1.000  O  -0.549431
  O9       1.0000 0.65125  0.80414  0.76650  Biso   1.000  O  -0.549417
  O10      1.0000 0.13007  0.42586  0.40278  Biso   1.000  O  -0.547730
  O11      1.0000 0.04124  0.43485  0.30718  Biso   1.000  O  -0.498922
  O12      1.0000 0.03601  0.61661  0.68562  Biso   1.000  O  -0.493836
  O13      1.0000 0.12055  0.33734  0.32948  Biso   1.000  O  -0.528159
  O14      1.0000 0.73810  0.05724  0.06640  Biso   1.000  O  -0.545852
  O15      1.0000 0.34037  0.92477  0.93494  Biso   1.000  O  -0.522468
  O16      1.0000 0.73406  0.12767  0.69282  Biso   1.000  O  -0.498866
  O17      1.0000 0.34875  0.19586  0.23350  Biso   1.000  O  -0.549426
  O18      1.0000 0.99084  0.26190  0.93360  Biso   1.000  O  -0.545788
  O19      1.0000 0.16934  0.38183  0.06946  Biso   1.000  O  -0.536481
  O20      1.0000 0.09988  0.31237  0.93054  Biso   1.000  O  -0.536655
  O21      1.0000 0.93099  0.96399  0.31438  Biso   1.000  O  -0.495269
  O22      1.0000 0.31237  0.83066  0.93054  Biso   1.000  O  -0.536526
  O23      1.0000 0.01017  0.34037  0.93494  Biso   1.000  O  -0.522395
  O24      1.0000 0.11525  0.96236  0.76650  Biso   1.000  O  -0.550561
  O25      1.0000 0.00916  0.73810  0.06640  Biso   1.000  O  -0.545804
  O26      1.0000 0.68763  0.16934  0.06946  Biso   1.000  O  -0.536527
  O27      1.0000 0.23751  0.84801  0.93262  Biso   1.000  O  -0.541882
  O28      1.0000 0.59457  0.01017  0.93494  Biso   1.000  O  -0.522406
  O29      1.0000 0.96399  0.38339  0.31438  Biso   1.000  O  -0.493831
  O30      1.0000 0.96851  0.95059  0.59346  Biso   1.000  O  -0.532020
  O31      1.0000 0.99214  0.12055  0.32948  Biso   1.000  O  -0.528686
  O32      1.0000 0.84801  0.69511  0.93262  Biso   1.000  O  -0.541930
  O33      1.0000 0.38183  0.90012  0.06946  Biso   1.000  O  -0.536482
  O34      1.0000 0.02308  0.86993  0.59722  Biso   1.000  O  -0.543063
  O35      1.0000 0.95251  0.29821  0.23422  Biso   1.000  O  -0.562299
  O36      1.0000 0.98983  0.65963  0.06506  Biso   1.000  O  -0.522467
  O37      1.0000 0.27271  0.97692  0.40278  Biso   1.000  O  -0.547594
  O38      1.0000 0.91539  0.76249  0.06738  Biso   1.000  O  -0.541896
  O39      1.0000 0.56515  0.73406  0.69282  Biso   1.000  O  -0.498869
  O40      1.0000 0.07523  0.40543  0.06506  Biso   1.000  O  -0.522418
  O41      1.0000 0.43485  0.26594  0.30718  Biso   1.000  O  -0.498864
  O42      1.0000 0.87233  0.04124  0.30718  Biso   1.000  O  -0.498762
  O43      1.0000 0.06901  0.03601  0.68562  Biso   1.000  O  -0.495387
  O44      1.0000 0.61817  0.09988  0.93054  Biso   1.000  O  -0.536483
  O45      1.0000 0.93601  0.95251  0.23422  Biso   1.000  O  -0.564283
  O46      1.0000 0.88475  0.03764  0.23350  Biso   1.000  O  -0.550570
  O47      1.0000 0.26190  0.94276  0.93360  Biso   1.000  O  -0.545851
  O48      1.0000 0.90012  0.68763  0.06946  Biso   1.000  O  -0.536502
  O49      1.0000 0.64961  0.06901  0.68562  Biso   1.000  O  -0.493846
  O50      1.0000 0.00786  0.87945  0.67052  Biso   1.000  O  -0.528675
  O51      1.0000 0.15199  0.30489  0.06738  Biso   1.000  O  -0.541925
  O52      1.0000 0.67170  0.99084  0.93360  Biso   1.000  O  -0.545763
  O53      1.0000 0.57414  0.72729  0.59722  Biso   1.000  O  -0.547703
  O54      1.0000 0.96236  0.65125  0.76650  Biso   1.000  O  -0.549447
  O55      1.0000 0.95876  0.56515  0.69282  Biso   1.000  O  -0.499015
  O56      1.0000 0.72729  0.02308  0.59722  Biso   1.000  O  -0.547609
  O57      1.0000 0.65963  0.07523  0.06506  Biso   1.000  O  -0.522470
  O58      1.0000 0.12767  0.95876  0.69282  Biso   1.000  O  -0.498763
  O59      1.0000 0.04090  0.03437  0.32660  Biso   1.000  O  -0.523843
  O60      1.0000 0.79107  0.00786  0.67052  Biso   1.000  O  -0.528142
  O61      1.0000 0.32830  0.00916  0.06640  Biso   1.000  O  -0.545763
  O62      1.0000 0.30489  0.91539  0.06738  Biso   1.000  O  -0.541858
  O63      1.0000 0.03764  0.34875  0.23350  Biso   1.000  O  -0.549434
  O64      1.0000 0.03149  0.04941  0.40654  Biso   1.000  O  -0.532017
  O65      1.0000 0.83066  0.61817  0.93054  Biso   1.000  O  -0.536556
  O66      1.0000 0.76249  0.15199  0.06738  Biso   1.000  O  -0.541881
  O67      1.0000 0.95910  0.96563  0.67340  Biso   1.000  O  -0.523831
  O68      1.0000 0.19586  0.88475  0.23350  Biso   1.000  O  -0.549438
  O69      1.0000 0.70179  0.71829  0.76578  Biso   1.000  O  -0.562226
  O70      1.0000 0.71430  0.70777  0.67340  Biso   1.000  O  -0.522382
  O71      1.0000 0.97692  0.13007  0.40278  Biso   1.000  O  -0.543109
  O72      1.0000 0.66266  0.79107  0.67052  Biso   1.000  O  -0.528126
  O73      1.0000 0.69511  0.08461  0.93262  Biso   1.000  O  -0.541857
  O74      1.0000 0.86993  0.57414  0.59722  Biso   1.000  O  -0.547722
  O75      1.0000 0.96563  0.71430  0.67340  Biso   1.000  O  -0.522505
  O76      1.0000 0.62495  0.64287  0.59346  Biso   1.000  O  -0.533121
  O77      1.0000 0.70777  0.95910  0.67340  Biso   1.000  O  -0.522430
  O78      1.0000 0.20893  0.99214  0.32948  Biso   1.000  O  -0.528125
  O79      1.0000 0.38339  0.35039  0.31438  Biso   1.000  O  -0.493827
  O80      1.0000 0.28171  0.93601  0.23422  Biso   1.000  O  -0.562210
  O81      1.0000 0.08461  0.23751  0.93262  Biso   1.000  O  -0.541939
  O82      1.0000 0.06399  0.04749  0.76578  Biso   1.000  O  -0.564289
  O83      1.0000 0.64287  0.96851  0.59346  Biso   1.000  O  -0.533152
  O84      1.0000 0.29821  0.28171  0.23422  Biso   1.000  O  -0.562209
  O85      1.0000 0.40543  0.98983  0.06506  Biso   1.000  O  -0.522405
  O86      1.0000 0.87945  0.66266  0.67052  Biso   1.000  O  -0.528148
  O87      1.0000 0.04749  0.70179  0.76578  Biso   1.000  O  -0.562288
  O88      1.0000 0.35039  0.93099  0.31438  Biso   1.000  O  -0.493844
  O89      1.0000 0.26594  0.87233  0.30718  Biso   1.000  O  -0.498958
  O90      1.0000 0.05724  0.32830  0.06640  Biso   1.000  O  -0.545849
  O91      1.0000 0.03437  0.28570  0.32660  Biso   1.000  O  -0.522512
  O92      1.0000 0.29223  0.04090  0.32660  Biso   1.000  O  -0.522411
  O93      1.0000 0.71829  0.06399  0.76578  Biso   1.000  O  -0.562233
  O94      1.0000 0.61661  0.64961  0.68562  Biso   1.000  O  -0.493921
  O95      1.0000 0.42586  0.27271  0.40278  Biso   1.000  O  -0.547737
  O96      1.0000 0.33734  0.20893  0.32948  Biso   1.000  O  -0.528134
