data_image0
_cell_length_a       12.079
_cell_length_b       12.382
_cell_length_c       12.568
_cell_angle_alpha    99.99
_cell_angle_beta     96
_cell_angle_gamma    91.29

_symmetry_space_group_name_H-M    "P 1"
_symmetry_int_tables_number       1

loop_
  _symmetry_equiv_pos_as_xyz
  'x, y, z'

loop_
  _atom_site_label
  _atom_site_occupancy
  _atom_site_fract_x
  _atom_site_fract_y
  _atom_site_fract_z
  _atom_site_thermal_displace_type
  _atom_site_B_iso_or_equiv
  _atom_site_type_symbol
  _atom_site_charge
  C1       1.0000 0.68610  0.24380  0.52150  Biso   1.000  C  0.601090
  C2       1.0000 0.75590  0.34750  0.54190  Biso   1.000  C  -0.179646
  C3       1.0000 0.79100  0.39720  0.45820  Biso   1.000  C  0.322443
  C4       1.0000 0.85340  0.49660  0.48290  Biso   1.000  C  -0.213231
  C5       1.0000 0.88130  0.54530  0.58900  Biso   1.000  C  -0.103215
  C6       1.0000 0.85150  0.49630  0.67580  Biso   1.000  C  0.048659
  C7       1.0000 0.78610  0.39960  0.65160  Biso   1.000  C  -0.134765
  C8       1.0000 0.88190  0.55030  0.79200  Biso   1.000  C  0.085486
  C9       1.0000 0.80750  0.54740  0.87000  Biso   1.000  C  -0.211835
  C10      1.0000 0.83440  0.59940  0.97870  Biso   1.000  C  0.098953
  C11      1.0000 0.93500  0.65570  0.00660  Biso   1.000  C  -0.206963
  C12      1.0000 0.01250  0.66180  0.93390  Biso   1.000  C  0.101076
  C13      1.0000 0.98400  0.60650  0.82740  Biso   1.000  C  -0.213030
  C14      1.0000 0.74620  0.59990  0.05520  Biso   1.000  C  0.058634
  C15      1.0000 0.68000  0.50660  0.05020  Biso   1.000  C  -0.093678
  C16      1.0000 0.59520  0.50840  0.11910  Biso   1.000  C  -0.206716
  C17      1.0000 0.57300  0.60320  0.18620  Biso   1.000  C  0.315411
  C18      1.0000 0.63880  0.69790  0.19350  Biso   1.000  C  -0.146259
  C19      1.0000 0.72470  0.69490  0.12590  Biso   1.000  C  -0.145296
  C20      1.0000 0.61920  0.80090  0.26790  Biso   1.000  C  0.631079
  C21      1.0000 0.12120  0.72230  0.96770  Biso   1.000  C  0.049372
  C22      1.0000 0.17270  0.73090  0.07400  Biso   1.000  C  -0.115177
  C23      1.0000 0.27450  0.79150  0.10780  Biso   1.000  C  -0.199669
  C24      1.0000 0.32390  0.84860  0.03920  Biso   1.000  C  0.327057
  C25      1.0000 0.27400  0.83870  0.92960  Biso   1.000  C  -0.180704
  C26      1.0000 0.17360  0.77780  0.89860  Biso   1.000  C  -0.124351
  C27      1.0000 0.32360  0.89810  0.84960  Biso   1.000  C  0.628068
  C28      1.0000 0.31390  0.75620  0.47850  Biso   1.000  C  0.598227
  C29      1.0000 0.24410  0.65250  0.45810  Biso   1.000  C  -0.178857
  C30      1.0000 0.20900  0.60280  0.54180  Biso   1.000  C  0.322211
  C31      1.0000 0.14660  0.50340  0.51710  Biso   1.000  C  -0.213754
  C32      1.0000 0.11870  0.45470  0.41100  Biso   1.000  C  -0.104674
  C33      1.0000 0.14850  0.50370  0.32420  Biso   1.000  C  0.048212
  C34      1.0000 0.21390  0.60040  0.34840  Biso   1.000  C  -0.135864
  C35      1.0000 0.11810  0.44970  0.20800  Biso   1.000  C  0.085843
  C36      1.0000 0.19250  0.45260  0.13000  Biso   1.000  C  -0.212011
  C37      1.0000 0.16560  0.40060  0.02130  Biso   1.000  C  0.099170
  C38      1.0000 0.06500  0.34430  0.99340  Biso   1.000  C  -0.207164
  C39      1.0000 0.98750  0.33820  0.06610  Biso   1.000  C  0.100639
  C40      1.0000 0.01600  0.39350  0.17260  Biso   1.000  C  -0.213858
  C41      1.0000 0.25380  0.40010  0.94480  Biso   1.000  C  0.058371
  C42      1.0000 0.32000  0.49340  0.94980  Biso   1.000  C  -0.094552
  C43      1.0000 0.40480  0.49160  0.88090  Biso   1.000  C  -0.206956
  C44      1.0000 0.42700  0.39680  0.81380  Biso   1.000  C  0.314862
  C45      1.0000 0.36120  0.30210  0.80650  Biso   1.000  C  -0.146139
  C46      1.0000 0.27530  0.30510  0.87410  Biso   1.000  C  -0.145415
  C47      1.0000 0.38080  0.19910  0.73210  Biso   1.000  C  0.628943
  C48      1.0000 0.87880  0.27770  0.03230  Biso   1.000  C  0.049079
  C49      1.0000 0.82730  0.26910  0.92600  Biso   1.000  C  -0.114627
  C50      1.0000 0.72550  0.20850  0.89220  Biso   1.000  C  -0.199942
  C51      1.0000 0.67610  0.15140  0.96080  Biso   1.000  C  0.327348
  C52      1.0000 0.72600  0.16130  0.07040  Biso   1.000  C  -0.181621
  C53      1.0000 0.82640  0.22220  0.10140  Biso   1.000  C  -0.124431
  C54      1.0000 0.67640  0.10190  0.15040  Biso   1.000  C  0.630199
  Cu1      1.0000 0.46319  0.90391  0.41747  Biso   1.000  Cu  0.898236
  Cu2      1.0000 0.67281  0.03833  0.35389  Biso   1.000  Cu  0.900233
  Cu3      1.0000 0.53681  0.09609  0.58253  Biso   1.000  Cu  0.900796
  Cu4      1.0000 0.32719  0.96167  0.64611  Biso   1.000  Cu  0.854450
  Cu5      1.0000 0.50000  0.00000  0.00000  Biso   1.000  Cu  0.949409
  H1       1.0000 0.87620  0.53000  0.42670  Biso   1.000  H  0.139631
  H2       1.0000 0.92130  0.61310  0.60450  Biso   1.000  H  0.113143
  H3       1.0000 0.76150  0.36820  0.70830  Biso   1.000  H  0.128637
  H4       1.0000 0.73800  0.50990  0.84920  Biso   1.000  H  0.118337
  H5       1.0000 0.95240  0.69200  0.07880  Biso   1.000  H  0.114498
  H6       1.0000 0.03630  0.60720  0.77710  Biso   1.000  H  0.113260
  H7       1.0000 0.69140  0.44230  0.00110  Biso   1.000  H  0.114723
  H8       1.0000 0.55320  0.44360  0.11920  Biso   1.000  H  0.139556
  H9       1.0000 0.76890  0.75900  0.12840  Biso   1.000  H  0.127137
  H10      1.0000 0.13910  0.69570  0.12360  Biso   1.000  H  0.111465
  H11      1.0000 0.30920  0.79300  0.17860  Biso   1.000  H  0.136525
  H12      1.0000 0.13970  0.77420  0.82720  Biso   1.000  H  0.113731
  H13      1.0000 0.50240  0.60380  0.31000  Biso   1.000  H  0.404128
  H14      1.0000 0.76940  0.28330  0.34400  Biso   1.000  H  0.400115
  H15      1.0000 0.64960  0.94940  0.50490  Biso   1.000  H  0.441949
  H16      1.0000 0.12380  0.47000  0.57330  Biso   1.000  H  0.139348
  H17      1.0000 0.07870  0.38690  0.39550  Biso   1.000  H  0.112719
  H18      1.0000 0.23850  0.63180  0.29170  Biso   1.000  H  0.128449
  H19      1.0000 0.26200  0.49010  0.15080  Biso   1.000  H  0.118329
  H20      1.0000 0.04760  0.30800  0.92120  Biso   1.000  H  0.114492
  H21      1.0000 0.96370  0.39280  0.22290  Biso   1.000  H  0.112932
  H22      1.0000 0.30860  0.55770  0.99890  Biso   1.000  H  0.114566
  H23      1.0000 0.44680  0.55640  0.88080  Biso   1.000  H  0.139310
  H24      1.0000 0.23110  0.24100  0.87160  Biso   1.000  H  0.127102
  H25      1.0000 0.86090  0.30430  0.87640  Biso   1.000  H  0.111449
  H26      1.0000 0.69080  0.20700  0.82140  Biso   1.000  H  0.136600
  H27      1.0000 0.86030  0.22580  0.17280  Biso   1.000  H  0.113663
  H28      1.0000 0.49760  0.39620  0.69000  Biso   1.000  H  0.403947
  H29      1.0000 0.23060  0.71670  0.65600  Biso   1.000  H  0.400534
  H30      1.0000 0.35040  0.05060  0.49510  Biso   1.000  H  0.439842
  O1       1.0000 0.65970  0.19880  0.42190  Biso   1.000  O  -0.603205
  O2       1.0000 0.65650  0.20690  0.60110  Biso   1.000  O  -0.515782
  O3       1.0000 0.48110  0.59580  0.24400  Biso   1.000  O  -0.523238
  O4       1.0000 0.53580  0.79630  0.32130  Biso   1.000  O  -0.567729
  O5       1.0000 0.68030  0.88540  0.27230  Biso   1.000  O  -0.558455
  O6       1.0000 0.41820  0.90810  0.07810  Biso   1.000  O  -0.494238
  O7       1.0000 0.41910  0.94300  0.87230  Biso   1.000  O  -0.546994
  O8       1.0000 0.26900  0.89840  0.76030  Biso   1.000  O  -0.501142
  O9       1.0000 0.76720  0.35110  0.35080  Biso   1.000  O  -0.503994
  O10      1.0000 0.60510  0.98910  0.47460  Biso   1.000  O  -0.944764
  O11      1.0000 0.34030  0.80120  0.57810  Biso   1.000  O  -0.598281
  O12      1.0000 0.34350  0.79310  0.39890  Biso   1.000  O  -0.515825
  O13      1.0000 0.51890  0.40420  0.75600  Biso   1.000  O  -0.523717
  O14      1.0000 0.46420  0.20370  0.67870  Biso   1.000  O  -0.566897
  O15      1.0000 0.31970  0.11460  0.72770  Biso   1.000  O  -0.553284
  O16      1.0000 0.58180  0.09190  0.92190  Biso   1.000  O  -0.494002
  O17      1.0000 0.58090  0.05700  0.12770  Biso   1.000  O  -0.549610
  O18      1.0000 0.73100  0.10160  0.23970  Biso   1.000  O  -0.506159
  O19      1.0000 0.23280  0.64890  0.64920  Biso   1.000  O  -0.504657
  O20      1.0000 0.39490  0.01090  0.52540  Biso   1.000  O  -0.937297
