data_image0
_cell_length_a       17.9257
_cell_length_b       17.9257
_cell_length_c       28.0627
_cell_angle_alpha    90
_cell_angle_beta     90
_cell_angle_gamma    90

_symmetry_space_group_name_H-M    "P 1"
_symmetry_int_tables_number       1

loop_
  _symmetry_equiv_pos_as_xyz
  'x, y, z'

loop_
  _atom_site_label
  _atom_site_occupancy
  _atom_site_fract_x
  _atom_site_fract_y
  _atom_site_fract_z
  _atom_site_thermal_displace_type
  _atom_site_B_iso_or_equiv
  _atom_site_type_symbol
  _atom_site_charge
  C1       1.0000 0.74515  0.65254  0.31353  Biso   1.000  C  0.599399
  C2       1.0000 0.74428  0.59646  0.35339  Biso   1.000  C  -0.007409
  C3       1.0000 0.80946  0.55882  0.36568  Biso   1.000  C  -0.139957
  C4       1.0000 0.81114  0.51129  0.40416  Biso   1.000  C  0.101533
  C5       1.0000 0.74671  0.50125  0.43051  Biso   1.000  C  -0.163236
  C6       1.0000 0.67994  0.53741  0.41861  Biso   1.000  C  -0.008787
  C7       1.0000 0.67964  0.58489  0.37951  Biso   1.000  C  -0.120029
  C8       1.0000 0.61205  0.52596  0.44866  Biso   1.000  C  0.599215
  C9       1.0000 0.88230  0.47643  0.42127  Biso   1.000  C  -0.007553
  C10      1.0000 0.91578  0.50977  0.45953  Biso   1.000  C  -0.193283
  C11      1.0000 0.75485  0.84746  0.31353  Biso   1.000  C  0.599407
  C12      1.0000 0.75572  0.90354  0.35339  Biso   1.000  C  -0.006938
  C13      1.0000 0.69054  0.94118  0.36568  Biso   1.000  C  -0.139628
  C14      1.0000 0.68886  0.98871  0.40416  Biso   1.000  C  0.102008
  C15      1.0000 0.75329  0.99875  0.43051  Biso   1.000  C  -0.163845
  C16      1.0000 0.82006  0.96259  0.41861  Biso   1.000  C  -0.005415
  C17      1.0000 0.82036  0.91511  0.37951  Biso   1.000  C  -0.120602
  C18      1.0000 0.88795  0.97404  0.44866  Biso   1.000  C  0.596019
  C19      1.0000 0.61770  0.02357  0.42127  Biso   1.000  C  -0.007708
  C20      1.0000 0.58422  0.99023  0.45953  Biso   1.000  C  -0.193410
  C21      1.0000 0.84746  0.74515  0.81353  Biso   1.000  C  0.599443
  C22      1.0000 0.90354  0.74428  0.85339  Biso   1.000  C  -0.007518
  C23      1.0000 0.94118  0.80946  0.86568  Biso   1.000  C  -0.139981
  C24      1.0000 0.98871  0.81114  0.90416  Biso   1.000  C  0.101688
  C25      1.0000 0.99875  0.74671  0.93051  Biso   1.000  C  -0.163111
  C26      1.0000 0.96259  0.67994  0.91861  Biso   1.000  C  -0.008797
  C27      1.0000 0.91511  0.67964  0.87951  Biso   1.000  C  -0.120069
  C28      1.0000 0.97404  0.61205  0.94866  Biso   1.000  C  0.599229
  C29      1.0000 0.02357  0.88230  0.92127  Biso   1.000  C  -0.007732
  C30      1.0000 0.99023  0.91578  0.95953  Biso   1.000  C  -0.193555
  C31      1.0000 0.65254  0.75485  0.81353  Biso   1.000  C  0.599435
  C32      1.0000 0.59646  0.75572  0.85339  Biso   1.000  C  -0.007822
  C33      1.0000 0.55882  0.69054  0.86568  Biso   1.000  C  -0.140284
  C34      1.0000 0.51129  0.68886  0.90416  Biso   1.000  C  0.101348
  C35      1.0000 0.50125  0.75329  0.93051  Biso   1.000  C  -0.162623
  C36      1.0000 0.53741  0.82006  0.91861  Biso   1.000  C  -0.012109
  C37      1.0000 0.58489  0.82036  0.87951  Biso   1.000  C  -0.119598
  C38      1.0000 0.52596  0.88795  0.94866  Biso   1.000  C  0.600198
  C39      1.0000 0.47643  0.61770  0.92127  Biso   1.000  C  -0.007591
  C40      1.0000 0.50977  0.58422  0.95953  Biso   1.000  C  -0.193467
  C41      1.0000 0.75485  0.65254  0.18647  Biso   1.000  C  0.599435
  C42      1.0000 0.75572  0.59646  0.14661  Biso   1.000  C  -0.007498
  C43      1.0000 0.69054  0.55882  0.13432  Biso   1.000  C  -0.139972
  C44      1.0000 0.68886  0.51129  0.09584  Biso   1.000  C  0.101700
  C45      1.0000 0.75329  0.50125  0.06949  Biso   1.000  C  -0.163116
  C46      1.0000 0.82006  0.53741  0.08139  Biso   1.000  C  -0.008787
  C47      1.0000 0.82036  0.58489  0.12049  Biso   1.000  C  -0.120040
  C48      1.0000 0.88795  0.52596  0.05134  Biso   1.000  C  0.599217
  C49      1.0000 0.61770  0.47643  0.07873  Biso   1.000  C  -0.007738
  C50      1.0000 0.58422  0.50977  0.04047  Biso   1.000  C  -0.193559
  C51      1.0000 0.74515  0.84746  0.18647  Biso   1.000  C  0.599429
  C52      1.0000 0.74428  0.90354  0.14661  Biso   1.000  C  -0.007841
  C53      1.0000 0.80946  0.94118  0.13432  Biso   1.000  C  -0.140295
  C54      1.0000 0.81114  0.98871  0.09584  Biso   1.000  C  0.101349
  C55      1.0000 0.74671  0.99875  0.06949  Biso   1.000  C  -0.162620
  C56      1.0000 0.67994  0.96259  0.08139  Biso   1.000  C  -0.012106
  C57      1.0000 0.67964  0.91511  0.12049  Biso   1.000  C  -0.119598
  C58      1.0000 0.61205  0.97404  0.05134  Biso   1.000  C  0.600198
  C59      1.0000 0.88230  0.02357  0.07873  Biso   1.000  C  -0.007593
  C60      1.0000 0.91578  0.99023  0.04047  Biso   1.000  C  -0.193465
  C61      1.0000 0.65254  0.74515  0.68647  Biso   1.000  C  0.599403
  C62      1.0000 0.59646  0.74428  0.64661  Biso   1.000  C  -0.007393
  C63      1.0000 0.55882  0.80946  0.63432  Biso   1.000  C  -0.139946
  C64      1.0000 0.51129  0.81114  0.59584  Biso   1.000  C  0.101534
  C65      1.0000 0.50125  0.74671  0.56949  Biso   1.000  C  -0.163237
  C66      1.0000 0.53741  0.67994  0.58139  Biso   1.000  C  -0.008789
  C67      1.0000 0.58489  0.67964  0.62049  Biso   1.000  C  -0.120031
  C68      1.0000 0.52596  0.61205  0.55134  Biso   1.000  C  0.599215
  C69      1.0000 0.47643  0.88230  0.57873  Biso   1.000  C  -0.007553
  C70      1.0000 0.50977  0.91578  0.54047  Biso   1.000  C  -0.193285
  C71      1.0000 0.84746  0.75485  0.68647  Biso   1.000  C  0.599403
  C72      1.0000 0.90354  0.75572  0.64661  Biso   1.000  C  -0.006949
  C73      1.0000 0.94118  0.69054  0.63432  Biso   1.000  C  -0.139642
  C74      1.0000 0.98871  0.68886  0.59584  Biso   1.000  C  0.102009
  C75      1.0000 0.99875  0.75329  0.56949  Biso   1.000  C  -0.163841
  C76      1.0000 0.96259  0.82006  0.58139  Biso   1.000  C  -0.005412
  C77      1.0000 0.91511  0.82036  0.62049  Biso   1.000  C  -0.120598
  C78      1.0000 0.97404  0.88795  0.55134  Biso   1.000  C  0.596019
  C79      1.0000 0.02357  0.61770  0.57873  Biso   1.000  C  -0.007710
  C80      1.0000 0.99023  0.58422  0.54047  Biso   1.000  C  -0.193409
  C81      1.0000 0.25485  0.34746  0.68647  Biso   1.000  C  0.599397
  C82      1.0000 0.25572  0.40354  0.64661  Biso   1.000  C  -0.007411
  C83      1.0000 0.19054  0.44118  0.63432  Biso   1.000  C  -0.139953
  C84      1.0000 0.18886  0.48871  0.59584  Biso   1.000  C  0.101528
  C85      1.0000 0.25329  0.49875  0.56949  Biso   1.000  C  -0.163242
  C86      1.0000 0.32006  0.46259  0.58139  Biso   1.000  C  -0.008791
  C87      1.0000 0.32036  0.41511  0.62049  Biso   1.000  C  -0.120034
  C88      1.0000 0.38795  0.47404  0.55134  Biso   1.000  C  0.599215
  C89      1.0000 0.11770  0.52357  0.57873  Biso   1.000  C  -0.007548
  C90      1.0000 0.08422  0.49023  0.54047  Biso   1.000  C  -0.193280
  C91      1.0000 0.24515  0.15254  0.68647  Biso   1.000  C  0.599403
  C92      1.0000 0.24428  0.09646  0.64661  Biso   1.000  C  -0.006943
  C93      1.0000 0.30946  0.05882  0.63432  Biso   1.000  C  -0.139630
  C94      1.0000 0.31114  0.01129  0.59584  Biso   1.000  C  0.102006
  C95      1.0000 0.24671  0.00125  0.56949  Biso   1.000  C  -0.163848
  C96      1.0000 0.17994  0.03741  0.58139  Biso   1.000  C  -0.005418
  C97      1.0000 0.17964  0.08489  0.62049  Biso   1.000  C  -0.120601
  C98      1.0000 0.11205  0.02596  0.55134  Biso   1.000  C  0.596019
  C99      1.0000 0.38230  0.97643  0.57873  Biso   1.000  C  -0.007707
  C100     1.0000 0.41578  0.00977  0.54047  Biso   1.000  C  -0.193408
  C101     1.0000 0.15254  0.25485  0.18647  Biso   1.000  C  0.599440
  C102     1.0000 0.09646  0.25572  0.14661  Biso   1.000  C  -0.007523
  C103     1.0000 0.05882  0.19054  0.13432  Biso   1.000  C  -0.139983
  C104     1.0000 0.01129  0.18886  0.09584  Biso   1.000  C  0.101688
  C105     1.0000 0.00125  0.25329  0.06949  Biso   1.000  C  -0.163115
  C106     1.0000 0.03741  0.32006  0.08139  Biso   1.000  C  -0.008800
  C107     1.0000 0.08489  0.32036  0.12049  Biso   1.000  C  -0.120071
  C108     1.0000 0.02596  0.38795  0.05134  Biso   1.000  C  0.599229
  C109     1.0000 0.97643  0.11770  0.07873  Biso   1.000  C  -0.007733
  C110     1.0000 0.00977  0.08422  0.04047  Biso   1.000  C  -0.193564
  C111     1.0000 0.34746  0.24515  0.18647  Biso   1.000  C  0.599415
  C112     1.0000 0.40354  0.24428  0.14661  Biso   1.000  C  -0.007813
  C113     1.0000 0.44118  0.30946  0.13432  Biso   1.000  C  -0.140273
  C114     1.0000 0.48871  0.31114  0.09584  Biso   1.000  C  0.101366
  C115     1.0000 0.49875  0.24671  0.06949  Biso   1.000  C  -0.162623
  C116     1.0000 0.46259  0.17994  0.08139  Biso   1.000  C  -0.012083
  C117     1.0000 0.41511  0.17964  0.12049  Biso   1.000  C  -0.119572
  C118     1.0000 0.47404  0.11205  0.05134  Biso   1.000  C  0.600191
  C119     1.0000 0.52357  0.38230  0.07873  Biso   1.000  C  -0.007603
  C120     1.0000 0.49023  0.41578  0.04047  Biso   1.000  C  -0.193469
  C121     1.0000 0.24515  0.34746  0.81353  Biso   1.000  C  0.599431
  C122     1.0000 0.24428  0.40354  0.85339  Biso   1.000  C  -0.007502
  C123     1.0000 0.30946  0.44118  0.86568  Biso   1.000  C  -0.139974
  C124     1.0000 0.31114  0.48871  0.90416  Biso   1.000  C  0.101699
  C125     1.0000 0.24671  0.49875  0.93051  Biso   1.000  C  -0.163121
  C126     1.0000 0.17994  0.46259  0.91861  Biso   1.000  C  -0.008791
  C127     1.0000 0.17964  0.41511  0.87951  Biso   1.000  C  -0.120043
  C128     1.0000 0.11205  0.47404  0.94866  Biso   1.000  C  0.599217
  C129     1.0000 0.38230  0.52357  0.92127  Biso   1.000  C  -0.007738
  C130     1.0000 0.41578  0.49023  0.95953  Biso   1.000  C  -0.193570
  C131     1.0000 0.25485  0.15254  0.81353  Biso   1.000  C  0.599409
  C132     1.0000 0.25572  0.09646  0.85339  Biso   1.000  C  -0.007832
  C133     1.0000 0.19054  0.05882  0.86568  Biso   1.000  C  -0.140284
  C134     1.0000 0.18886  0.01129  0.90416  Biso   1.000  C  0.101367
  C135     1.0000 0.25329  0.00125  0.93051  Biso   1.000  C  -0.162620
  C136     1.0000 0.32006  0.03741  0.91861  Biso   1.000  C  -0.012082
  C137     1.0000 0.32036  0.08489  0.87951  Biso   1.000  C  -0.119572
  C138     1.0000 0.38795  0.02596  0.94866  Biso   1.000  C  0.600192
  C139     1.0000 0.11770  0.97643  0.92127  Biso   1.000  C  -0.007605
  C140     1.0000 0.08422  0.00977  0.95953  Biso   1.000  C  -0.193470
  C141     1.0000 0.34746  0.25485  0.31353  Biso   1.000  C  0.599401
  C142     1.0000 0.40354  0.25572  0.35339  Biso   1.000  C  -0.007397
  C143     1.0000 0.44118  0.19054  0.36568  Biso   1.000  C  -0.139947
  C144     1.0000 0.48871  0.18886  0.40416  Biso   1.000  C  0.101532
  C145     1.0000 0.49875  0.25329  0.43051  Biso   1.000  C  -0.163239
  C146     1.0000 0.46259  0.32006  0.41861  Biso   1.000  C  -0.008791
  C147     1.0000 0.41511  0.32036  0.37951  Biso   1.000  C  -0.120029
  C148     1.0000 0.47404  0.38795  0.44866  Biso   1.000  C  0.599215
  C149     1.0000 0.52357  0.11770  0.42127  Biso   1.000  C  -0.007552
  C150     1.0000 0.49023  0.08422  0.45953  Biso   1.000  C  -0.193284
  C151     1.0000 0.15254  0.24515  0.31353  Biso   1.000  C  0.599402
  C152     1.0000 0.09646  0.24428  0.35339  Biso   1.000  C  -0.006951
  C153     1.0000 0.05882  0.30946  0.36568  Biso   1.000  C  -0.139637
  C154     1.0000 0.01129  0.31114  0.40416  Biso   1.000  C  0.102005
  C155     1.0000 0.00125  0.24671  0.43051  Biso   1.000  C  -0.163846
  C156     1.0000 0.03741  0.17994  0.41861  Biso   1.000  C  -0.005415
  C157     1.0000 0.08489  0.17964  0.37951  Biso   1.000  C  -0.120604
  C158     1.0000 0.02596  0.11205  0.44866  Biso   1.000  C  0.596019
  C159     1.0000 0.97643  0.38230  0.42127  Biso   1.000  C  -0.007706
  C160     1.0000 0.00977  0.41578  0.45953  Biso   1.000  C  -0.193406
  C161     1.0000 0.98166  0.48166  0.47946  Biso   1.000  C  0.076365
  C162     1.0000 0.91305  0.41305  0.40143  Biso   1.000  C  0.147726
  C163     1.0000 0.82540  0.32540  0.37110  Biso   1.000  C  -0.238077
  C164     1.0000 0.51834  0.01834  0.47946  Biso   1.000  C  0.076364
  C165     1.0000 0.58695  0.08695  0.40143  Biso   1.000  C  0.147727
  C166     1.0000 0.67460  0.17460  0.37110  Biso   1.000  C  -0.238076
  C167     1.0000 0.01834  0.98166  0.97946  Biso   1.000  C  0.076312
  C168     1.0000 0.08695  0.91305  0.90143  Biso   1.000  C  0.147605
  C169     1.0000 0.17460  0.82540  0.87110  Biso   1.000  C  -0.238098
  C170     1.0000 0.48166  0.51834  0.97946  Biso   1.000  C  0.076303
  C171     1.0000 0.41305  0.58695  0.90143  Biso   1.000  C  0.147610
  C172     1.0000 0.32540  0.67460  0.87110  Biso   1.000  C  -0.238096
  C173     1.0000 0.51834  0.48166  0.02054  Biso   1.000  C  0.076310
  C174     1.0000 0.58695  0.41305  0.09857  Biso   1.000  C  0.147604
  C175     1.0000 0.67460  0.32540  0.12890  Biso   1.000  C  -0.238096
  C176     1.0000 0.98166  0.01834  0.02054  Biso   1.000  C  0.076302
  C177     1.0000 0.91305  0.08695  0.09857  Biso   1.000  C  0.147609
  C178     1.0000 0.82540  0.17460  0.12890  Biso   1.000  C  -0.238097
  C179     1.0000 0.48166  0.98166  0.52054  Biso   1.000  C  0.076361
  C180     1.0000 0.41305  0.91305  0.59857  Biso   1.000  C  0.147727
  C181     1.0000 0.32540  0.82540  0.62890  Biso   1.000  C  -0.238076
  C182     1.0000 0.01834  0.51834  0.52054  Biso   1.000  C  0.076362
  C183     1.0000 0.08695  0.58695  0.59857  Biso   1.000  C  0.147726
  C184     1.0000 0.17460  0.67460  0.62890  Biso   1.000  C  -0.238076
  Cu1      1.0000 0.45944  0.54056  0.47032  Biso   1.000  Cu  0.865175
  Cu2      1.0000 0.04056  0.95944  0.47032  Biso   1.000  Cu  0.840199
  Cu3      1.0000 0.95944  0.45944  0.97032  Biso   1.000  Cu  0.865098
  Cu4      1.0000 0.54056  0.04056  0.97032  Biso   1.000  Cu  0.872169
  Cu5      1.0000 0.04056  0.54056  0.02968  Biso   1.000  Cu  0.865095
  Cu6      1.0000 0.45944  0.95944  0.02968  Biso   1.000  Cu  0.872170
  Cu7      1.0000 0.54056  0.45944  0.52968  Biso   1.000  Cu  0.865176
  Cu8      1.0000 0.95944  0.04056  0.52968  Biso   1.000  Cu  0.840198
  Cu9      1.0000 0.67568  0.75000  0.25000  Biso   1.000  Cu  0.861773
  Cu10     1.0000 0.82432  0.75000  0.25000  Biso   1.000  Cu  0.862043
  Cu11     1.0000 0.75000  0.67568  0.75000  Biso   1.000  Cu  0.861896
  Cu12     1.0000 0.75000  0.82432  0.75000  Biso   1.000  Cu  0.861968
  Cu13     1.0000 0.32432  0.25000  0.75000  Biso   1.000  Cu  0.861839
  Cu14     1.0000 0.17568  0.25000  0.75000  Biso   1.000  Cu  0.861869
  Cu15     1.0000 0.25000  0.32432  0.25000  Biso   1.000  Cu  0.861725
  Cu16     1.0000 0.25000  0.17568  0.25000  Biso   1.000  Cu  0.862040
  H1       1.0000 0.85330  0.56610  0.34730  Biso   1.000  H  0.132769
  H2       1.0000 0.74770  0.46900  0.45740  Biso   1.000  H  0.126669
  H3       1.0000 0.63490  0.60960  0.37060  Biso   1.000  H  0.134630
  H4       1.0000 0.89380  0.55320  0.47300  Biso   1.000  H  0.123340
  H5       1.0000 0.84780  0.28500  0.38980  Biso   1.000  H  0.111190
  H6       1.0000 0.64670  0.93390  0.34730  Biso   1.000  H  0.132909
  H7       1.0000 0.75230  0.03100  0.45740  Biso   1.000  H  0.127015
  H8       1.0000 0.86510  0.89040  0.37060  Biso   1.000  H  0.134953
  H9       1.0000 0.60620  0.94680  0.47300  Biso   1.000  H  0.123335
  H10      1.0000 0.65220  0.21500  0.38980  Biso   1.000  H  0.111259
  H11      1.0000 0.93390  0.85330  0.84730  Biso   1.000  H  0.132737
  H12      1.0000 0.03100  0.74770  0.95740  Biso   1.000  H  0.126688
  H13      1.0000 0.89040  0.63490  0.87060  Biso   1.000  H  0.134601
  H14      1.0000 0.94680  0.89380  0.97300  Biso   1.000  H  0.123307
  H15      1.0000 0.21500  0.84780  0.88980  Biso   1.000  H  0.111243
  H16      1.0000 0.56610  0.64670  0.84730  Biso   1.000  H  0.132621
  H17      1.0000 0.46900  0.75230  0.95740  Biso   1.000  H  0.126369
  H18      1.0000 0.60960  0.86510  0.87060  Biso   1.000  H  0.134291
  H19      1.0000 0.55320  0.60620  0.97300  Biso   1.000  H  0.123310
  H20      1.0000 0.28500  0.65220  0.88980  Biso   1.000  H  0.111171
  H21      1.0000 0.64670  0.56610  0.15270  Biso   1.000  H  0.132746
  H22      1.0000 0.75230  0.46900  0.04260  Biso   1.000  H  0.126693
  H23      1.0000 0.86510  0.60960  0.12940  Biso   1.000  H  0.134603
  H24      1.0000 0.60620  0.55320  0.02700  Biso   1.000  H  0.123307
  H25      1.0000 0.65220  0.28500  0.11020  Biso   1.000  H  0.111240
  H26      1.0000 0.85330  0.93390  0.15270  Biso   1.000  H  0.132617
  H27      1.0000 0.74770  0.03100  0.04260  Biso   1.000  H  0.126372
  H28      1.0000 0.63490  0.89040  0.12940  Biso   1.000  H  0.134291
  H29      1.0000 0.89380  0.94680  0.02700  Biso   1.000  H  0.123311
  H30      1.0000 0.84780  0.21500  0.11020  Biso   1.000  H  0.111176
  H31      1.0000 0.56610  0.85330  0.65270  Biso   1.000  H  0.132775
  H32      1.0000 0.46900  0.74770  0.54260  Biso   1.000  H  0.126667
  H33      1.0000 0.60960  0.63490  0.62940  Biso   1.000  H  0.134629
  H34      1.0000 0.55320  0.89380  0.52700  Biso   1.000  H  0.123339
  H35      1.0000 0.28500  0.84780  0.61020  Biso   1.000  H  0.111186
  H36      1.0000 0.93390  0.64670  0.65270  Biso   1.000  H  0.132903
  H37      1.0000 0.03100  0.75230  0.54260  Biso   1.000  H  0.127017
  H38      1.0000 0.89040  0.86510  0.62940  Biso   1.000  H  0.134954
  H39      1.0000 0.94680  0.60620  0.52700  Biso   1.000  H  0.123335
  H40      1.0000 0.21500  0.65220  0.61020  Biso   1.000  H  0.111263
  H41      1.0000 0.14670  0.43390  0.65270  Biso   1.000  H  0.132765
  H42      1.0000 0.25230  0.53100  0.54260  Biso   1.000  H  0.126666
  H43      1.0000 0.36510  0.39040  0.62940  Biso   1.000  H  0.134627
  H44      1.0000 0.10620  0.44680  0.52700  Biso   1.000  H  0.123342
  H45      1.0000 0.15220  0.71500  0.61020  Biso   1.000  H  0.111188
  H46      1.0000 0.35330  0.06610  0.65270  Biso   1.000  H  0.132905
  H47      1.0000 0.24770  0.96900  0.54260  Biso   1.000  H  0.127013
  H48      1.0000 0.13490  0.10960  0.62940  Biso   1.000  H  0.134952
  H49      1.0000 0.39380  0.05320  0.52700  Biso   1.000  H  0.123335
  H50      1.0000 0.34780  0.78500  0.61020  Biso   1.000  H  0.111258
  H51      1.0000 0.06610  0.14670  0.15270  Biso   1.000  H  0.132734
  H52      1.0000 0.96900  0.25230  0.04260  Biso   1.000  H  0.126688
  H53      1.0000 0.10960  0.36510  0.12940  Biso   1.000  H  0.134600
  H54      1.0000 0.05320  0.10620  0.02700  Biso   1.000  H  0.123304
  H55      1.0000 0.78500  0.15220  0.11020  Biso   1.000  H  0.111244
  H56      1.0000 0.43390  0.35330  0.15270  Biso   1.000  H  0.132628
  H57      1.0000 0.53100  0.24770  0.04260  Biso   1.000  H  0.126379
  H58      1.0000 0.39040  0.13490  0.12940  Biso   1.000  H  0.134296
  H59      1.0000 0.44680  0.39380  0.02700  Biso   1.000  H  0.123309
  H60      1.0000 0.71500  0.34780  0.11020  Biso   1.000  H  0.111173
  H61      1.0000 0.35330  0.43390  0.84730  Biso   1.000  H  0.132742
  H62      1.0000 0.24770  0.53100  0.95740  Biso   1.000  H  0.126691
  H63      1.0000 0.13490  0.39040  0.87060  Biso   1.000  H  0.134601
  H64      1.0000 0.39380  0.44680  0.97300  Biso   1.000  H  0.123302
  H65      1.0000 0.34780  0.71500  0.88980  Biso   1.000  H  0.111241
  H66      1.0000 0.14670  0.06610  0.84730  Biso   1.000  H  0.132624
  H67      1.0000 0.25230  0.96900  0.95740  Biso   1.000  H  0.126380
  H68      1.0000 0.36510  0.10960  0.87060  Biso   1.000  H  0.134294
  H69      1.0000 0.10620  0.05320  0.97300  Biso   1.000  H  0.123309
  H70      1.0000 0.15220  0.78500  0.88980  Biso   1.000  H  0.111178
  H71      1.0000 0.43390  0.14670  0.34730  Biso   1.000  H  0.132772
  H72      1.0000 0.53100  0.25230  0.45740  Biso   1.000  H  0.126666
  H73      1.0000 0.39040  0.36510  0.37060  Biso   1.000  H  0.134629
  H74      1.0000 0.44680  0.10620  0.47300  Biso   1.000  H  0.123340
  H75      1.0000 0.71500  0.15220  0.38980  Biso   1.000  H  0.111186
  H76      1.0000 0.06610  0.35330  0.34730  Biso   1.000  H  0.132900
  H77      1.0000 0.96900  0.24770  0.45740  Biso   1.000  H  0.127015
  H78      1.0000 0.10960  0.13490  0.37060  Biso   1.000  H  0.134952
  H79      1.0000 0.05320  0.39380  0.47300  Biso   1.000  H  0.123337
  H80      1.0000 0.78500  0.34780  0.38980  Biso   1.000  H  0.111262
  H81      1.0000 0.80560  0.30560  0.34110  Biso   1.000  H  0.138953
  H82      1.0000 0.69440  0.19440  0.34110  Biso   1.000  H  0.138956
  H83      1.0000 0.19440  0.80560  0.84110  Biso   1.000  H  0.138837
  H84      1.0000 0.30560  0.69440  0.84110  Biso   1.000  H  0.138839
  H85      1.0000 0.69440  0.30560  0.15890  Biso   1.000  H  0.138841
  H86      1.0000 0.80560  0.19440  0.15890  Biso   1.000  H  0.138833
  H87      1.0000 0.30560  0.80560  0.65890  Biso   1.000  H  0.138956
  H88      1.0000 0.19440  0.69440  0.65890  Biso   1.000  H  0.138951
  O1       1.0000 0.68368  0.68158  0.30319  Biso   1.000  O  -0.520111
  O2       1.0000 0.80701  0.66571  0.29451  Biso   1.000  O  -0.533369
  O3       1.0000 0.55194  0.55585  0.43463  Biso   1.000  O  -0.524398
  O4       1.0000 0.62051  0.48795  0.48556  Biso   1.000  O  -0.534007
  O5       1.0000 0.81632  0.81842  0.30319  Biso   1.000  O  -0.519953
  O6       1.0000 0.69299  0.83429  0.29451  Biso   1.000  O  -0.533228
  O7       1.0000 0.94806  0.94415  0.43463  Biso   1.000  O  -0.518401
  O8       1.0000 0.87949  0.01205  0.48556  Biso   1.000  O  -0.527482
  O9       1.0000 0.81842  0.68368  0.80319  Biso   1.000  O  -0.519962
  O10      1.0000 0.83429  0.80701  0.79451  Biso   1.000  O  -0.533292
  O11      1.0000 0.94415  0.55194  0.93463  Biso   1.000  O  -0.524447
  O12      1.0000 0.01205  0.62051  0.98556  Biso   1.000  O  -0.533986
  O13      1.0000 0.68158  0.81632  0.80319  Biso   1.000  O  -0.519985
  O14      1.0000 0.66571  0.69299  0.79451  Biso   1.000  O  -0.533243
  O15      1.0000 0.55585  0.94806  0.93463  Biso   1.000  O  -0.525198
  O16      1.0000 0.48795  0.87949  0.98556  Biso   1.000  O  -0.535050
  O17      1.0000 0.81632  0.68158  0.19681  Biso   1.000  O  -0.519899
  O18      1.0000 0.69299  0.66571  0.20549  Biso   1.000  O  -0.533121
  O19      1.0000 0.94806  0.55585  0.06537  Biso   1.000  O  -0.524463
  O20      1.0000 0.87949  0.48795  0.01444  Biso   1.000  O  -0.533885
  O21      1.0000 0.68368  0.81842  0.19681  Biso   1.000  O  -0.520034
  O22      1.0000 0.80701  0.83429  0.20549  Biso   1.000  O  -0.533315
  O23      1.0000 0.55194  0.94415  0.06537  Biso   1.000  O  -0.525199
  O24      1.0000 0.62051  0.01205  0.01444  Biso   1.000  O  -0.535048
  O25      1.0000 0.68158  0.68368  0.69681  Biso   1.000  O  -0.520072
  O26      1.0000 0.66571  0.80701  0.70549  Biso   1.000  O  -0.533293
  O27      1.0000 0.55585  0.55194  0.56537  Biso   1.000  O  -0.524397
  O28      1.0000 0.48795  0.62051  0.51444  Biso   1.000  O  -0.534007
  O29      1.0000 0.81842  0.81632  0.69681  Biso   1.000  O  -0.519999
  O30      1.0000 0.83429  0.69299  0.70549  Biso   1.000  O  -0.533266
  O31      1.0000 0.94415  0.94806  0.56537  Biso   1.000  O  -0.518400
  O32      1.0000 0.01205  0.87949  0.51444  Biso   1.000  O  -0.527481
  O33      1.0000 0.31632  0.31842  0.69681  Biso   1.000  O  -0.520117
  O34      1.0000 0.19299  0.33429  0.70549  Biso   1.000  O  -0.533413
  O35      1.0000 0.44806  0.44415  0.56537  Biso   1.000  O  -0.524396
  O36      1.0000 0.37949  0.51205  0.51444  Biso   1.000  O  -0.534006
  O37      1.0000 0.18368  0.18158  0.69681  Biso   1.000  O  -0.519948
  O38      1.0000 0.30701  0.16571  0.70549  Biso   1.000  O  -0.533247
  O39      1.0000 0.05194  0.05585  0.56537  Biso   1.000  O  -0.518399
  O40      1.0000 0.12051  0.98795  0.51444  Biso   1.000  O  -0.527482
  O41      1.0000 0.18158  0.31632  0.19681  Biso   1.000  O  -0.519967
  O42      1.0000 0.16571  0.19299  0.20549  Biso   1.000  O  -0.533305
  O43      1.0000 0.05585  0.44806  0.06537  Biso   1.000  O  -0.524447
  O44      1.0000 0.98795  0.37949  0.01444  Biso   1.000  O  -0.533987
  O45      1.0000 0.31842  0.18368  0.19681  Biso   1.000  O  -0.519972
  O46      1.0000 0.33429  0.30701  0.20549  Biso   1.000  O  -0.533105
  O47      1.0000 0.44415  0.05194  0.06537  Biso   1.000  O  -0.525142
  O48      1.0000 0.51205  0.12051  0.01444  Biso   1.000  O  -0.534935
  O49      1.0000 0.18368  0.31842  0.80319  Biso   1.000  O  -0.519905
  O50      1.0000 0.30701  0.33429  0.79451  Biso   1.000  O  -0.533134
  O51      1.0000 0.05194  0.44415  0.93463  Biso   1.000  O  -0.524462
  O52      1.0000 0.12051  0.51205  0.98556  Biso   1.000  O  -0.533884
  O53      1.0000 0.31632  0.18158  0.80319  Biso   1.000  O  -0.520022
  O54      1.0000 0.19299  0.16571  0.79451  Biso   1.000  O  -0.533178
  O55      1.0000 0.44806  0.05585  0.93463  Biso   1.000  O  -0.525142
  O56      1.0000 0.37949  0.98795  0.98556  Biso   1.000  O  -0.534934
  O57      1.0000 0.31842  0.31632  0.30319  Biso   1.000  O  -0.520067
  O58      1.0000 0.33429  0.19299  0.29451  Biso   1.000  O  -0.533311
  O59      1.0000 0.44415  0.44806  0.43463  Biso   1.000  O  -0.524396
  O60      1.0000 0.51205  0.37949  0.48556  Biso   1.000  O  -0.534007
  O61      1.0000 0.18158  0.18368  0.30319  Biso   1.000  O  -0.520003
  O62      1.0000 0.16571  0.30701  0.29451  Biso   1.000  O  -0.533309
  O63      1.0000 0.05585  0.05194  0.43463  Biso   1.000  O  -0.518400
  O64      1.0000 0.98795  0.12051  0.48556  Biso   1.000  O  -0.527480
  O65      1.0000 0.88040  0.38040  0.36115  Biso   1.000  O  -0.205006
  O66      1.0000 0.61960  0.11960  0.36115  Biso   1.000  O  -0.204988
  O67      1.0000 0.11960  0.88040  0.86115  Biso   1.000  O  -0.205160
  O68      1.0000 0.38040  0.61960  0.86115  Biso   1.000  O  -0.205138
  O69      1.0000 0.61960  0.38040  0.13885  Biso   1.000  O  -0.205142
  O70      1.0000 0.88040  0.11960  0.13885  Biso   1.000  O  -0.205158
  O71      1.0000 0.38040  0.88040  0.63885  Biso   1.000  O  -0.204987
  O72      1.0000 0.11960  0.61960  0.63885  Biso   1.000  O  -0.205005
