data_image0
_cell_length_a       13.8954
_cell_length_b       13.8954
_cell_length_c       17.787
_cell_angle_alpha    90
_cell_angle_beta     90
_cell_angle_gamma    90

_symmetry_space_group_name_H-M    "P 1"
_symmetry_int_tables_number       1

loop_
  _symmetry_equiv_pos_as_xyz
  'x, y, z'

loop_
  _atom_site_label
  _atom_site_occupancy
  _atom_site_fract_x
  _atom_site_fract_y
  _atom_site_fract_z
  _atom_site_thermal_displace_type
  _atom_site_B_iso_or_equiv
  _atom_site_type_symbol
  _atom_site_charge
  C1       1.0000 0.28250  0.26780  0.32010  Biso   1.000  C  0.233381
  C2       1.0000 0.23220  0.78250  0.07010  Biso   1.000  C  0.233381
  C3       1.0000 0.71750  0.73220  0.82010  Biso   1.000  C  0.233381
  C4       1.0000 0.76780  0.21750  0.57010  Biso   1.000  C  0.233381
  C5       1.0000 0.78250  0.23220  0.92990  Biso   1.000  C  0.233381
  C6       1.0000 0.26780  0.28250  0.67990  Biso   1.000  C  0.233381
  C7       1.0000 0.21750  0.76780  0.42990  Biso   1.000  C  0.233381
  C8       1.0000 0.73220  0.71750  0.17990  Biso   1.000  C  0.233381
  C9       1.0000 0.29230  0.16450  0.34140  Biso   1.000  C  0.053398
  C10      1.0000 0.33550  0.79230  0.09140  Biso   1.000  C  0.053398
  C11      1.0000 0.70770  0.83550  0.84140  Biso   1.000  C  0.053397
  C12      1.0000 0.66450  0.20770  0.59140  Biso   1.000  C  0.053397
  C13      1.0000 0.79230  0.33550  0.90860  Biso   1.000  C  0.053397
  C14      1.0000 0.16450  0.29230  0.65860  Biso   1.000  C  0.053398
  C15      1.0000 0.20770  0.66450  0.40860  Biso   1.000  C  0.053397
  C16      1.0000 0.83550  0.70770  0.15860  Biso   1.000  C  0.053397
  C17      1.0000 0.40070  0.16540  0.37420  Biso   1.000  C  -0.240526
  C18      1.0000 0.33460  0.90070  0.12420  Biso   1.000  C  -0.240526
  C19      1.0000 0.59930  0.83460  0.87420  Biso   1.000  C  -0.240526
  C20      1.0000 0.66540  0.09930  0.62420  Biso   1.000  C  -0.240526
  C21      1.0000 0.90070  0.33460  0.87580  Biso   1.000  C  -0.240526
  C22      1.0000 0.16540  0.40070  0.62580  Biso   1.000  C  -0.240526
  C23      1.0000 0.09930  0.66540  0.37580  Biso   1.000  C  -0.240527
  C24      1.0000 0.83460  0.59930  0.12580  Biso   1.000  C  -0.240526
  C25      1.0000 0.45210  0.24120  0.33530  Biso   1.000  C  -0.193720
  C26      1.0000 0.25880  0.95210  0.08530  Biso   1.000  C  -0.193720
  C27      1.0000 0.54790  0.75880  0.83530  Biso   1.000  C  -0.193720
  C28      1.0000 0.74120  0.04790  0.58530  Biso   1.000  C  -0.193720
  C29      1.0000 0.95210  0.25880  0.91470  Biso   1.000  C  -0.193720
  C30      1.0000 0.24120  0.45210  0.66470  Biso   1.000  C  -0.193720
  C31      1.0000 0.04790  0.74120  0.41470  Biso   1.000  C  -0.193720
  C32      1.0000 0.75880  0.54790  0.16470  Biso   1.000  C  -0.193720
  C33      1.0000 0.38120  0.29160  0.27940  Biso   1.000  C  -0.176824
  C34      1.0000 0.20840  0.88120  0.02940  Biso   1.000  C  -0.176824
  C35      1.0000 0.61880  0.70840  0.77940  Biso   1.000  C  -0.176824
  C36      1.0000 0.79160  0.11880  0.52940  Biso   1.000  C  -0.176824
  C37      1.0000 0.88120  0.20840  0.97060  Biso   1.000  C  -0.176824
  C38      1.0000 0.29160  0.38120  0.72060  Biso   1.000  C  -0.176824
  C39      1.0000 0.11880  0.79160  0.47060  Biso   1.000  C  -0.176824
  C40      1.0000 0.70840  0.61880  0.22060  Biso   1.000  C  -0.176824
  C41      1.0000 0.21650  0.13410  0.40060  Biso   1.000  C  0.576013
  C42      1.0000 0.36590  0.71650  0.15060  Biso   1.000  C  0.576013
  C43      1.0000 0.78350  0.86590  0.90060  Biso   1.000  C  0.576013
  C44      1.0000 0.63410  0.28350  0.65060  Biso   1.000  C  0.576012
  C45      1.0000 0.71650  0.36590  0.84940  Biso   1.000  C  0.576013
  C46      1.0000 0.13410  0.21650  0.59940  Biso   1.000  C  0.576012
  C47      1.0000 0.28350  0.63410  0.34940  Biso   1.000  C  0.576013
  C48      1.0000 0.86590  0.78350  0.09940  Biso   1.000  C  0.576013
  C49      1.0000 0.28240  0.09840  0.27840  Biso   1.000  C  -0.507785
  C50      1.0000 0.40160  0.78240  0.02840  Biso   1.000  C  -0.507786
  C51      1.0000 0.71760  0.90160  0.77840  Biso   1.000  C  -0.507786
  C52      1.0000 0.59840  0.21760  0.52840  Biso   1.000  C  -0.507785
  C53      1.0000 0.78240  0.40160  0.97160  Biso   1.000  C  -0.507785
  C54      1.0000 0.09840  0.28240  0.72160  Biso   1.000  C  -0.507785
  C55      1.0000 0.21760  0.59840  0.47160  Biso   1.000  C  -0.507785
  C56      1.0000 0.90160  0.71760  0.22160  Biso   1.000  C  -0.507785
  C57      1.0000 0.19970  0.29010  0.27140  Biso   1.000  C  -0.537458
  C58      1.0000 0.20990  0.69970  0.02140  Biso   1.000  C  -0.537458
  C59      1.0000 0.80030  0.70990  0.77140  Biso   1.000  C  -0.537458
  C60      1.0000 0.79010  0.30030  0.52140  Biso   1.000  C  -0.537458
  C61      1.0000 0.69970  0.20990  0.97860  Biso   1.000  C  -0.537458
  C62      1.0000 0.29010  0.19970  0.72860  Biso   1.000  C  -0.537458
  C63      1.0000 0.30030  0.79010  0.47860  Biso   1.000  C  -0.537458
  C64      1.0000 0.70990  0.80030  0.22860  Biso   1.000  C  -0.537458
  C65      1.0000 0.26460  0.33850  0.38050  Biso   1.000  C  -0.531780
  C66      1.0000 0.16150  0.76460  0.13050  Biso   1.000  C  -0.531781
  C67      1.0000 0.73540  0.66150  0.88050  Biso   1.000  C  -0.531781
  C68      1.0000 0.83850  0.23540  0.63050  Biso   1.000  C  -0.531780
  C69      1.0000 0.76460  0.16150  0.86950  Biso   1.000  C  -0.531780
  C70      1.0000 0.33850  0.26460  0.61950  Biso   1.000  C  -0.531780
  C71      1.0000 0.23540  0.83850  0.36950  Biso   1.000  C  -0.531780
  C72      1.0000 0.66150  0.73540  0.11950  Biso   1.000  C  -0.531781
  C73      1.0000 0.40110  0.39900  0.26920  Biso   1.000  C  0.602248
  C74      1.0000 0.10100  0.90110  0.01920  Biso   1.000  C  0.602249
  C75      1.0000 0.59890  0.60100  0.76920  Biso   1.000  C  0.602248
  C76      1.0000 0.89900  0.09890  0.51920  Biso   1.000  C  0.602249
  C77      1.0000 0.90110  0.10100  0.98080  Biso   1.000  C  0.602249
  C78      1.0000 0.39900  0.40110  0.73080  Biso   1.000  C  0.602248
  C79      1.0000 0.09890  0.89900  0.48080  Biso   1.000  C  0.602248
  C80      1.0000 0.60100  0.59890  0.23080  Biso   1.000  C  0.602249
  H1       1.0000 0.40000  0.17780  0.42790  Biso   1.000  H  0.112432
  H2       1.0000 0.32220  0.90000  0.17790  Biso   1.000  H  0.112432
  H3       1.0000 0.60000  0.82220  0.92790  Biso   1.000  H  0.112432
  H4       1.0000 0.67780  0.10000  0.67790  Biso   1.000  H  0.112432
  H5       1.0000 0.90000  0.32220  0.82210  Biso   1.000  H  0.112432
  H6       1.0000 0.17780  0.40000  0.57210  Biso   1.000  H  0.112432
  H7       1.0000 0.10000  0.67780  0.32210  Biso   1.000  H  0.112432
  H8       1.0000 0.82220  0.60000  0.07210  Biso   1.000  H  0.112432
  H9       1.0000 0.43160  0.10380  0.36550  Biso   1.000  H  0.113453
  H10      1.0000 0.39620  0.93160  0.11550  Biso   1.000  H  0.113453
  H11      1.0000 0.56840  0.89620  0.86550  Biso   1.000  H  0.113453
  H12      1.0000 0.60380  0.06840  0.61550  Biso   1.000  H  0.113453
  H13      1.0000 0.93160  0.39620  0.88450  Biso   1.000  H  0.113452
  H14      1.0000 0.10380  0.43160  0.63450  Biso   1.000  H  0.113453
  H15      1.0000 0.06840  0.60380  0.38450  Biso   1.000  H  0.113453
  H16      1.0000 0.89620  0.56840  0.13450  Biso   1.000  H  0.113452
  H17      1.0000 0.50610  0.21440  0.30790  Biso   1.000  H  0.106359
  H18      1.0000 0.28560  0.00610  0.05790  Biso   1.000  H  0.106359
  H19      1.0000 0.49390  0.78560  0.80790  Biso   1.000  H  0.106360
  H20      1.0000 0.71440  0.99390  0.55790  Biso   1.000  H  0.106360
  H21      1.0000 0.00610  0.28560  0.94210  Biso   1.000  H  0.106358
  H22      1.0000 0.21440  0.50610  0.69210  Biso   1.000  H  0.106358
  H23      1.0000 0.99390  0.71440  0.44210  Biso   1.000  H  0.106359
  H24      1.0000 0.78560  0.49390  0.19210  Biso   1.000  H  0.106359
  H25      1.0000 0.47650  0.28770  0.37120  Biso   1.000  H  0.113226
  H26      1.0000 0.21230  0.97650  0.12120  Biso   1.000  H  0.113226
  H27      1.0000 0.52350  0.71230  0.87120  Biso   1.000  H  0.113226
  H28      1.0000 0.78770  0.02350  0.62120  Biso   1.000  H  0.113226
  H29      1.0000 0.97650  0.21230  0.87880  Biso   1.000  H  0.113226
  H30      1.0000 0.28770  0.47650  0.62880  Biso   1.000  H  0.113226
  H31      1.0000 0.02350  0.78770  0.37880  Biso   1.000  H  0.113226
  H32      1.0000 0.71230  0.52350  0.12880  Biso   1.000  H  0.113226
  H33      1.0000 0.38350  0.25910  0.23050  Biso   1.000  H  0.113051
  H34      1.0000 0.24090  0.88350  0.98050  Biso   1.000  H  0.113050
  H35      1.0000 0.61650  0.74090  0.73050  Biso   1.000  H  0.113051
  H36      1.0000 0.75910  0.11650  0.48050  Biso   1.000  H  0.113051
  H37      1.0000 0.88350  0.24090  0.01950  Biso   1.000  H  0.113051
  H38      1.0000 0.25910  0.38350  0.76950  Biso   1.000  H  0.113051
  H39      1.0000 0.11650  0.75910  0.51950  Biso   1.000  H  0.113051
  H40      1.0000 0.74090  0.61650  0.26950  Biso   1.000  H  0.113051
  H41      1.0000 0.28870  0.03340  0.29600  Biso   1.000  H  0.165631
  H42      1.0000 0.46660  0.78870  0.04600  Biso   1.000  H  0.165631
  H43      1.0000 0.71130  0.96660  0.79600  Biso   1.000  H  0.165631
  H44      1.0000 0.53340  0.21130  0.54600  Biso   1.000  H  0.165631
  H45      1.0000 0.78870  0.46660  0.95400  Biso   1.000  H  0.165631
  H46      1.0000 0.03340  0.28870  0.70400  Biso   1.000  H  0.165631
  H47      1.0000 0.21130  0.53340  0.45400  Biso   1.000  H  0.165631
  H48      1.0000 0.96660  0.71130  0.20400  Biso   1.000  H  0.165631
  H49      1.0000 0.33170  0.11140  0.24190  Biso   1.000  H  0.165712
  H50      1.0000 0.38860  0.83170  0.99190  Biso   1.000  H  0.165712
  H51      1.0000 0.66830  0.88860  0.74190  Biso   1.000  H  0.165712
  H52      1.0000 0.61140  0.16830  0.49190  Biso   1.000  H  0.165712
  H53      1.0000 0.83170  0.38860  0.00810  Biso   1.000  H  0.165712
  H54      1.0000 0.11140  0.33170  0.75810  Biso   1.000  H  0.165712
  H55      1.0000 0.16830  0.61140  0.50810  Biso   1.000  H  0.165712
  H56      1.0000 0.88860  0.66830  0.25810  Biso   1.000  H  0.165712
  H57      1.0000 0.22030  0.10670  0.25560  Biso   1.000  H  0.168862
  H58      1.0000 0.39330  0.72030  0.00560  Biso   1.000  H  0.168863
  H59      1.0000 0.77970  0.89330  0.75560  Biso   1.000  H  0.168863
  H60      1.0000 0.60670  0.27970  0.50560  Biso   1.000  H  0.168862
  H61      1.0000 0.72030  0.39330  0.99440  Biso   1.000  H  0.168862
  H62      1.0000 0.10670  0.22030  0.74440  Biso   1.000  H  0.168862
  H63      1.0000 0.27970  0.60670  0.49440  Biso   1.000  H  0.168862
  H64      1.0000 0.89330  0.77970  0.24440  Biso   1.000  H  0.168862
  H65      1.0000 0.20200  0.25040  0.22730  Biso   1.000  H  0.146295
  H66      1.0000 0.24960  0.70200  0.97730  Biso   1.000  H  0.146295
  H67      1.0000 0.79800  0.74960  0.72730  Biso   1.000  H  0.146296
  H68      1.0000 0.75040  0.29800  0.47730  Biso   1.000  H  0.146296
  H69      1.0000 0.70200  0.24960  0.02270  Biso   1.000  H  0.146295
  H70      1.0000 0.25040  0.20200  0.77270  Biso   1.000  H  0.146295
  H71      1.0000 0.29800  0.75040  0.52270  Biso   1.000  H  0.146296
  H72      1.0000 0.74960  0.79800  0.27270  Biso   1.000  H  0.146295
  H73      1.0000 0.20220  0.35670  0.25690  Biso   1.000  H  0.165151
  H74      1.0000 0.14330  0.70220  0.00690  Biso   1.000  H  0.165151
  H75      1.0000 0.79780  0.64330  0.75690  Biso   1.000  H  0.165151
  H76      1.0000 0.85670  0.29780  0.50690  Biso   1.000  H  0.165151
  H77      1.0000 0.70220  0.14330  0.99310  Biso   1.000  H  0.165151
  H78      1.0000 0.35670  0.20220  0.74310  Biso   1.000  H  0.165151
  H79      1.0000 0.29780  0.85670  0.49310  Biso   1.000  H  0.165151
  H80      1.0000 0.64330  0.79780  0.24310  Biso   1.000  H  0.165151
  H81      1.0000 0.14110  0.27790  0.29830  Biso   1.000  H  0.167772
  H82      1.0000 0.22210  0.64110  0.04830  Biso   1.000  H  0.167772
  H83      1.0000 0.85890  0.72210  0.79830  Biso   1.000  H  0.167771
  H84      1.0000 0.77790  0.35890  0.54830  Biso   1.000  H  0.167771
  H85      1.0000 0.64110  0.22210  0.95170  Biso   1.000  H  0.167772
  H86      1.0000 0.27790  0.14110  0.70170  Biso   1.000  H  0.167771
  H87      1.0000 0.35890  0.77790  0.45170  Biso   1.000  H  0.167771
  H88      1.0000 0.72210  0.85890  0.20170  Biso   1.000  H  0.167772
  H89      1.0000 0.26450  0.40220  0.35980  Biso   1.000  H  0.156870
  H90      1.0000 0.09780  0.76450  0.10980  Biso   1.000  H  0.156871
  H91      1.0000 0.73550  0.59780  0.85980  Biso   1.000  H  0.156870
  H92      1.0000 0.90220  0.23550  0.60980  Biso   1.000  H  0.156871
  H93      1.0000 0.76450  0.09780  0.89020  Biso   1.000  H  0.156870
  H94      1.0000 0.40220  0.26450  0.64020  Biso   1.000  H  0.156870
  H95      1.0000 0.23550  0.90220  0.39020  Biso   1.000  H  0.156870
  H96      1.0000 0.59780  0.73550  0.14020  Biso   1.000  H  0.156870
  H97      1.0000 0.31430  0.33340  0.41780  Biso   1.000  H  0.151406
  H98      1.0000 0.16660  0.81430  0.16780  Biso   1.000  H  0.151406
  H99      1.0000 0.68570  0.66660  0.91780  Biso   1.000  H  0.151406
  H100     1.0000 0.83340  0.18570  0.66780  Biso   1.000  H  0.151406
  H101     1.0000 0.81430  0.16660  0.83220  Biso   1.000  H  0.151406
  H102     1.0000 0.33340  0.31430  0.58220  Biso   1.000  H  0.151406
  H103     1.0000 0.18570  0.83340  0.33220  Biso   1.000  H  0.151406
  H104     1.0000 0.66660  0.68570  0.08220  Biso   1.000  H  0.151406
  H105     1.0000 0.20330  0.32560  0.40330  Biso   1.000  H  0.164929
  H106     1.0000 0.17440  0.70330  0.15330  Biso   1.000  H  0.164929
  H107     1.0000 0.79670  0.67440  0.90330  Biso   1.000  H  0.164929
  H108     1.0000 0.82560  0.29670  0.65330  Biso   1.000  H  0.164929
  H109     1.0000 0.70330  0.17440  0.84670  Biso   1.000  H  0.164929
  H110     1.0000 0.32560  0.20330  0.59670  Biso   1.000  H  0.164929
  H111     1.0000 0.29670  0.82560  0.34670  Biso   1.000  H  0.164929
  H112     1.0000 0.67440  0.79670  0.09670  Biso   1.000  H  0.164929
  In1      1.0000 0.08733  0.08733  0.50000  Biso   1.000  In  1.334550
  In2      1.0000 0.41267  0.58733  0.25000  Biso   1.000  In  1.334550
  In3      1.0000 0.91267  0.91267  0.00000  Biso   1.000  In  1.334551
  In4      1.0000 0.58733  0.41267  0.75000  Biso   1.000  In  1.334551
  O1       1.0000 0.24510  0.10530  0.46460  Biso   1.000  O  -0.510906
  O2       1.0000 0.39470  0.74510  0.21460  Biso   1.000  O  -0.510906
  O3       1.0000 0.75490  0.89470  0.96460  Biso   1.000  O  -0.510906
  O4       1.0000 0.60530  0.25490  0.71460  Biso   1.000  O  -0.510906
  O5       1.0000 0.74510  0.39470  0.78540  Biso   1.000  O  -0.510906
  O6       1.0000 0.10530  0.24510  0.53540  Biso   1.000  O  -0.510905
  O7       1.0000 0.25490  0.60530  0.28540  Biso   1.000  O  -0.510906
  O8       1.0000 0.89470  0.75490  0.03540  Biso   1.000  O  -0.510905
  O9       1.0000 0.13220  0.13500  0.38520  Biso   1.000  O  -0.473512
  O10      1.0000 0.36500  0.63220  0.13520  Biso   1.000  O  -0.473512
  O11      1.0000 0.86780  0.86500  0.88520  Biso   1.000  O  -0.473513
  O12      1.0000 0.63500  0.36780  0.63520  Biso   1.000  O  -0.473512
  O13      1.0000 0.63220  0.36500  0.86480  Biso   1.000  O  -0.473513
  O14      1.0000 0.13500  0.13220  0.61480  Biso   1.000  O  -0.473512
  O15      1.0000 0.36780  0.63500  0.36480  Biso   1.000  O  -0.473513
  O16      1.0000 0.86500  0.86780  0.11480  Biso   1.000  O  -0.473513
  O17      1.0000 0.45100  0.44300  0.31690  Biso   1.000  O  -0.479266
  O18      1.0000 0.05700  0.95100  0.06690  Biso   1.000  O  -0.479268
  O19      1.0000 0.54900  0.55700  0.81690  Biso   1.000  O  -0.479266
  O20      1.0000 0.94300  0.04900  0.56690  Biso   1.000  O  -0.479267
  O21      1.0000 0.95100  0.05700  0.93310  Biso   1.000  O  -0.479266
  O22      1.0000 0.44300  0.45100  0.68310  Biso   1.000  O  -0.479265
  O23      1.0000 0.04900  0.94300  0.43310  Biso   1.000  O  -0.479266
  O24      1.0000 0.55700  0.54900  0.18310  Biso   1.000  O  -0.479267
  O25      1.0000 0.36550  0.44170  0.21450  Biso   1.000  O  -0.491685
  O26      1.0000 0.05830  0.86550  0.96450  Biso   1.000  O  -0.491686
  O27      1.0000 0.63450  0.55830  0.71450  Biso   1.000  O  -0.491686
  O28      1.0000 0.94170  0.13450  0.46450  Biso   1.000  O  -0.491687
  O29      1.0000 0.86550  0.05830  0.03550  Biso   1.000  O  -0.491686
  O30      1.0000 0.44170  0.36550  0.78550  Biso   1.000  O  -0.491685
  O31      1.0000 0.13450  0.94170  0.53550  Biso   1.000  O  -0.491686
  O32      1.0000 0.55830  0.63450  0.28550  Biso   1.000  O  -0.491686
