data_image0
_cell_length_a       27.7364
_cell_length_b       27.7364
_cell_length_c       27.7364
_cell_angle_alpha    90
_cell_angle_beta     90
_cell_angle_gamma    90

_symmetry_space_group_name_H-M    "P 1"
_symmetry_int_tables_number       1

loop_
  _symmetry_equiv_pos_as_xyz
  'x, y, z'

loop_
  _atom_site_label
  _atom_site_occupancy
  _atom_site_fract_x
  _atom_site_fract_y
  _atom_site_fract_z
  _atom_site_thermal_displace_type
  _atom_site_B_iso_or_equiv
  _atom_site_type_symbol
  _atom_site_charge
  C1       1.0000 0.84273  0.70796  0.65846  Biso   1.000  C  -0.131478
  C2       1.0000 0.87743  0.70721  0.62282  Biso   1.000  C  -0.078219
  C3       1.0000 0.15727  0.29204  0.65846  Biso   1.000  C  -0.131481
  C4       1.0000 0.12257  0.29279  0.62282  Biso   1.000  C  -0.078224
  C5       1.0000 0.15727  0.70796  0.34154  Biso   1.000  C  -0.131469
  C6       1.0000 0.12257  0.70721  0.37718  Biso   1.000  C  -0.078202
  C7       1.0000 0.84273  0.29204  0.34154  Biso   1.000  C  -0.131469
  C8       1.0000 0.87743  0.29279  0.37718  Biso   1.000  C  -0.078203
  C9       1.0000 0.65846  0.84273  0.70796  Biso   1.000  C  -0.131964
  C10      1.0000 0.62282  0.87743  0.70721  Biso   1.000  C  -0.078049
  C11      1.0000 0.65846  0.15727  0.29204  Biso   1.000  C  -0.131955
  C12      1.0000 0.62282  0.12257  0.29279  Biso   1.000  C  -0.078024
  C13      1.0000 0.34154  0.15727  0.70796  Biso   1.000  C  -0.131954
  C14      1.0000 0.37718  0.12257  0.70721  Biso   1.000  C  -0.078030
  C15      1.0000 0.34154  0.84273  0.29204  Biso   1.000  C  -0.131953
  C16      1.0000 0.37718  0.87743  0.29279  Biso   1.000  C  -0.078020
  C17      1.0000 0.70796  0.65846  0.84273  Biso   1.000  C  -0.131787
  C18      1.0000 0.70721  0.62282  0.87743  Biso   1.000  C  -0.077969
  C19      1.0000 0.29204  0.65846  0.15727  Biso   1.000  C  -0.131789
  C20      1.0000 0.29279  0.62282  0.12257  Biso   1.000  C  -0.077975
  C21      1.0000 0.70796  0.34154  0.15727  Biso   1.000  C  -0.131777
  C22      1.0000 0.70721  0.37718  0.12257  Biso   1.000  C  -0.077952
  C23      1.0000 0.29204  0.34154  0.84273  Biso   1.000  C  -0.131775
  C24      1.0000 0.29279  0.37718  0.87743  Biso   1.000  C  -0.077947
  C25      1.0000 0.20796  0.34273  0.84154  Biso   1.000  C  -0.131810
  C26      1.0000 0.20721  0.37743  0.87718  Biso   1.000  C  -0.077957
  C27      1.0000 0.79204  0.65727  0.84154  Biso   1.000  C  -0.131799
  C28      1.0000 0.79279  0.62257  0.87718  Biso   1.000  C  -0.077944
  C29      1.0000 0.20796  0.65727  0.15846  Biso   1.000  C  -0.131793
  C30      1.0000 0.20721  0.62257  0.12282  Biso   1.000  C  -0.077940
  C31      1.0000 0.79204  0.34273  0.15846  Biso   1.000  C  -0.131803
  C32      1.0000 0.79279  0.37743  0.12282  Biso   1.000  C  -0.077952
  C33      1.0000 0.34273  0.15846  0.79204  Biso   1.000  C  -0.131305
  C34      1.0000 0.37743  0.12282  0.79279  Biso   1.000  C  -0.078115
  C35      1.0000 0.65727  0.15846  0.20796  Biso   1.000  C  -0.131317
  C36      1.0000 0.62257  0.12282  0.20721  Biso   1.000  C  -0.078125
  C37      1.0000 0.65727  0.84154  0.79204  Biso   1.000  C  -0.131301
  C38      1.0000 0.62257  0.87718  0.79279  Biso   1.000  C  -0.078109
  C39      1.0000 0.34273  0.84154  0.20796  Biso   1.000  C  -0.131323
  C40      1.0000 0.37743  0.87718  0.20721  Biso   1.000  C  -0.078131
  C41      1.0000 0.15846  0.20796  0.65727  Biso   1.000  C  -0.131484
  C42      1.0000 0.12282  0.20721  0.62257  Biso   1.000  C  -0.078191
  C43      1.0000 0.15846  0.79204  0.34273  Biso   1.000  C  -0.131492
  C44      1.0000 0.12282  0.79279  0.37743  Biso   1.000  C  -0.078201
  C45      1.0000 0.84154  0.20796  0.34273  Biso   1.000  C  -0.131495
  C46      1.0000 0.87718  0.20721  0.37743  Biso   1.000  C  -0.078206
  C47      1.0000 0.84154  0.79204  0.65727  Biso   1.000  C  -0.131489
  C48      1.0000 0.87718  0.79279  0.62257  Biso   1.000  C  -0.078193
  C49      1.0000 0.15727  0.29204  0.34154  Biso   1.000  C  -0.131469
  C50      1.0000 0.12257  0.29279  0.37718  Biso   1.000  C  -0.078203
  C51      1.0000 0.84273  0.70796  0.34154  Biso   1.000  C  -0.131468
  C52      1.0000 0.87743  0.70721  0.37718  Biso   1.000  C  -0.078202
  C53      1.0000 0.84273  0.29204  0.65846  Biso   1.000  C  -0.131478
  C54      1.0000 0.87743  0.29279  0.62282  Biso   1.000  C  -0.078220
  C55      1.0000 0.15727  0.70796  0.65846  Biso   1.000  C  -0.131480
  C56      1.0000 0.12257  0.70721  0.62282  Biso   1.000  C  -0.078223
  C57      1.0000 0.34154  0.15727  0.29204  Biso   1.000  C  -0.131955
  C58      1.0000 0.37718  0.12257  0.29279  Biso   1.000  C  -0.078025
  C59      1.0000 0.34154  0.84273  0.70796  Biso   1.000  C  -0.131952
  C60      1.0000 0.37718  0.87743  0.70721  Biso   1.000  C  -0.078027
  C61      1.0000 0.65846  0.84273  0.29204  Biso   1.000  C  -0.131952
  C62      1.0000 0.62282  0.87743  0.29279  Biso   1.000  C  -0.078020
  C63      1.0000 0.65846  0.15727  0.70796  Biso   1.000  C  -0.131966
  C64      1.0000 0.62282  0.12257  0.70721  Biso   1.000  C  -0.078054
  C65      1.0000 0.29204  0.34154  0.15727  Biso   1.000  C  -0.131777
  C66      1.0000 0.29279  0.37718  0.12257  Biso   1.000  C  -0.077952
  C67      1.0000 0.70796  0.34154  0.84273  Biso   1.000  C  -0.131774
  C68      1.0000 0.70721  0.37718  0.87743  Biso   1.000  C  -0.077946
  C69      1.0000 0.29204  0.65846  0.84273  Biso   1.000  C  -0.131787
  C70      1.0000 0.29279  0.62282  0.87743  Biso   1.000  C  -0.077971
  C71      1.0000 0.70796  0.65846  0.15727  Biso   1.000  C  -0.131789
  C72      1.0000 0.70721  0.62282  0.12257  Biso   1.000  C  -0.077975
  C73      1.0000 0.79204  0.65727  0.15846  Biso   1.000  C  -0.131793
  C74      1.0000 0.79279  0.62257  0.12282  Biso   1.000  C  -0.077941
  C75      1.0000 0.20796  0.34273  0.15846  Biso   1.000  C  -0.131803
  C76      1.0000 0.20721  0.37743  0.12282  Biso   1.000  C  -0.077952
  C77      1.0000 0.79204  0.34273  0.84154  Biso   1.000  C  -0.131808
  C78      1.0000 0.79279  0.37743  0.87718  Biso   1.000  C  -0.077956
  C79      1.0000 0.20796  0.65727  0.84154  Biso   1.000  C  -0.131799
  C80      1.0000 0.20721  0.62257  0.87718  Biso   1.000  C  -0.077946
  C81      1.0000 0.65727  0.84154  0.20796  Biso   1.000  C  -0.131324
  C82      1.0000 0.62257  0.87718  0.20721  Biso   1.000  C  -0.078133
  C83      1.0000 0.34273  0.84154  0.79204  Biso   1.000  C  -0.131313
  C84      1.0000 0.37743  0.87718  0.79279  Biso   1.000  C  -0.078123
  C85      1.0000 0.34273  0.15846  0.20796  Biso   1.000  C  -0.131315
  C86      1.0000 0.37743  0.12282  0.20721  Biso   1.000  C  -0.078124
  C87      1.0000 0.65727  0.15846  0.79204  Biso   1.000  C  -0.131293
  C88      1.0000 0.62257  0.12282  0.79279  Biso   1.000  C  -0.078102
  C89      1.0000 0.84154  0.79204  0.34273  Biso   1.000  C  -0.131494
  C90      1.0000 0.87718  0.79279  0.37743  Biso   1.000  C  -0.078205
  C91      1.0000 0.84154  0.20796  0.65727  Biso   1.000  C  -0.131489
  C92      1.0000 0.87718  0.20721  0.62257  Biso   1.000  C  -0.078195
  C93      1.0000 0.15846  0.79204  0.65727  Biso   1.000  C  -0.131483
  C94      1.0000 0.12282  0.79279  0.62257  Biso   1.000  C  -0.078190
  C95      1.0000 0.15846  0.20796  0.34273  Biso   1.000  C  -0.131493
  C96      1.0000 0.12282  0.20721  0.37743  Biso   1.000  C  -0.078203
  C97      1.0000 0.00000  0.97379  0.50000  Biso   1.000  C  0.101340
  C98      1.0000 0.00000  0.02621  0.50000  Biso   1.000  C  0.101336
  C99      1.0000 0.50000  0.00000  0.97379  Biso   1.000  C  0.101356
  C100     1.0000 0.50000  0.00000  0.02621  Biso   1.000  C  0.101332
  C101     1.0000 0.97379  0.50000  0.00000  Biso   1.000  C  0.101349
  C102     1.0000 0.02621  0.50000  0.00000  Biso   1.000  C  0.101346
  C103     1.0000 0.47379  0.50000  0.00000  Biso   1.000  C  0.103047
  C104     1.0000 0.52621  0.50000  0.00000  Biso   1.000  C  0.103049
  C105     1.0000 0.50000  0.00000  0.52621  Biso   1.000  C  0.103806
  C106     1.0000 0.50000  0.00000  0.47379  Biso   1.000  C  0.100583
  C107     1.0000 0.00000  0.47379  0.50000  Biso   1.000  C  0.103037
  C108     1.0000 0.00000  0.52621  0.50000  Biso   1.000  C  0.103041
  C109     1.0000 0.93337  0.75000  0.56663  Biso   1.000  C  0.624875
  C110     1.0000 0.89573  0.75000  0.60427  Biso   1.000  C  -0.039868
  C111     1.0000 0.82385  0.75000  0.67615  Biso   1.000  C  0.081545
  C112     1.0000 0.78586  0.75000  0.71414  Biso   1.000  C  0.083067
  C113     1.0000 0.06663  0.25000  0.56663  Biso   1.000  C  0.624880
  C114     1.0000 0.10427  0.25000  0.60427  Biso   1.000  C  -0.039881
  C115     1.0000 0.17615  0.25000  0.67615  Biso   1.000  C  0.081555
  C116     1.0000 0.21414  0.25000  0.71414  Biso   1.000  C  0.083057
  C117     1.0000 0.06663  0.75000  0.43337  Biso   1.000  C  0.624884
  C118     1.0000 0.10427  0.75000  0.39573  Biso   1.000  C  -0.039884
  C119     1.0000 0.17615  0.75000  0.32385  Biso   1.000  C  0.081546
  C120     1.0000 0.21414  0.75000  0.28586  Biso   1.000  C  0.083064
  C121     1.0000 0.93337  0.25000  0.43337  Biso   1.000  C  0.624885
  C122     1.0000 0.89573  0.25000  0.39573  Biso   1.000  C  -0.039888
  C123     1.0000 0.82385  0.25000  0.32385  Biso   1.000  C  0.081552
  C124     1.0000 0.78586  0.25000  0.28586  Biso   1.000  C  0.083057
  C125     1.0000 0.56663  0.93337  0.75000  Biso   1.000  C  0.624891
  C126     1.0000 0.60427  0.89573  0.75000  Biso   1.000  C  -0.039930
  C127     1.0000 0.67615  0.82385  0.75000  Biso   1.000  C  0.081860
  C128     1.0000 0.71414  0.78586  0.75000  Biso   1.000  C  0.081428
  C129     1.0000 0.56663  0.06663  0.25000  Biso   1.000  C  0.624892
  C130     1.0000 0.60427  0.10427  0.25000  Biso   1.000  C  -0.039915
  C131     1.0000 0.67615  0.17615  0.25000  Biso   1.000  C  0.081838
  C132     1.0000 0.71414  0.21414  0.25000  Biso   1.000  C  0.081438
  C133     1.0000 0.43337  0.06663  0.75000  Biso   1.000  C  0.624897
  C134     1.0000 0.39573  0.10427  0.75000  Biso   1.000  C  -0.039936
  C135     1.0000 0.32385  0.17615  0.75000  Biso   1.000  C  0.081851
  C136     1.0000 0.28586  0.21414  0.75000  Biso   1.000  C  0.081432
  C137     1.0000 0.43337  0.93337  0.25000  Biso   1.000  C  0.624890
  C138     1.0000 0.39573  0.89573  0.25000  Biso   1.000  C  -0.039909
  C139     1.0000 0.32385  0.82385  0.25000  Biso   1.000  C  0.081837
  C140     1.0000 0.28586  0.78586  0.25000  Biso   1.000  C  0.081439
  C141     1.0000 0.75000  0.56663  0.93337  Biso   1.000  C  0.624856
  C142     1.0000 0.75000  0.60427  0.89573  Biso   1.000  C  -0.039930
  C143     1.0000 0.75000  0.67615  0.82385  Biso   1.000  C  0.082126
  C144     1.0000 0.75000  0.71414  0.78586  Biso   1.000  C  0.079840
  C145     1.0000 0.25000  0.56663  0.06663  Biso   1.000  C  0.624864
  C146     1.0000 0.25000  0.60427  0.10427  Biso   1.000  C  -0.039950
  C147     1.0000 0.25000  0.67615  0.17615  Biso   1.000  C  0.082142
  C148     1.0000 0.25000  0.71414  0.21414  Biso   1.000  C  0.079825
  C149     1.0000 0.75000  0.43337  0.06663  Biso   1.000  C  0.624868
  C150     1.0000 0.75000  0.39573  0.10427  Biso   1.000  C  -0.039951
  C151     1.0000 0.75000  0.32385  0.17615  Biso   1.000  C  0.082133
  C152     1.0000 0.75000  0.28586  0.21414  Biso   1.000  C  0.079830
  C153     1.0000 0.25000  0.43337  0.93337  Biso   1.000  C  0.624862
  C154     1.0000 0.25000  0.39573  0.89573  Biso   1.000  C  -0.039934
  C155     1.0000 0.25000  0.32385  0.82385  Biso   1.000  C  0.082123
  C156     1.0000 0.25000  0.28586  0.78586  Biso   1.000  C  0.079839
  C157     1.0000 0.06663  0.25000  0.43337  Biso   1.000  C  0.624887
  C158     1.0000 0.10427  0.25000  0.39573  Biso   1.000  C  -0.039888
  C159     1.0000 0.17615  0.25000  0.32385  Biso   1.000  C  0.081551
  C160     1.0000 0.21414  0.25000  0.28586  Biso   1.000  C  0.083058
  C161     1.0000 0.93337  0.75000  0.43337  Biso   1.000  C  0.624883
  C162     1.0000 0.89573  0.75000  0.39573  Biso   1.000  C  -0.039884
  C163     1.0000 0.82385  0.75000  0.32385  Biso   1.000  C  0.081546
  C164     1.0000 0.78586  0.75000  0.28586  Biso   1.000  C  0.083063
  C165     1.0000 0.93337  0.25000  0.56663  Biso   1.000  C  0.624877
  C166     1.0000 0.89573  0.25000  0.60427  Biso   1.000  C  -0.039872
  C167     1.0000 0.82385  0.25000  0.67615  Biso   1.000  C  0.081551
  C168     1.0000 0.78586  0.25000  0.71414  Biso   1.000  C  0.083061
  C169     1.0000 0.06663  0.75000  0.56663  Biso   1.000  C  0.624878
  C170     1.0000 0.10427  0.75000  0.60427  Biso   1.000  C  -0.039877
  C171     1.0000 0.17615  0.75000  0.67615  Biso   1.000  C  0.081549
  C172     1.0000 0.21414  0.75000  0.71414  Biso   1.000  C  0.083063
  C173     1.0000 0.43337  0.06663  0.25000  Biso   1.000  C  0.624895
  C174     1.0000 0.39573  0.10427  0.25000  Biso   1.000  C  -0.039918
  C175     1.0000 0.32385  0.17615  0.25000  Biso   1.000  C  0.081840
  C176     1.0000 0.28586  0.21414  0.25000  Biso   1.000  C  0.081437
  C177     1.0000 0.43337  0.93337  0.75000  Biso   1.000  C  0.624892
  C178     1.0000 0.39573  0.89573  0.75000  Biso   1.000  C  -0.039927
  C179     1.0000 0.32385  0.82385  0.75000  Biso   1.000  C  0.081847
  C180     1.0000 0.28586  0.78586  0.75000  Biso   1.000  C  0.081435
  C181     1.0000 0.56663  0.93337  0.25000  Biso   1.000  C  0.624888
  C182     1.0000 0.60427  0.89573  0.25000  Biso   1.000  C  -0.039907
  C183     1.0000 0.67615  0.82385  0.25000  Biso   1.000  C  0.081834
  C184     1.0000 0.71414  0.78586  0.25000  Biso   1.000  C  0.081441
  C185     1.0000 0.56663  0.06663  0.75000  Biso   1.000  C  0.624895
  C186     1.0000 0.60427  0.10427  0.75000  Biso   1.000  C  -0.039939
  C187     1.0000 0.67615  0.17615  0.75000  Biso   1.000  C  0.081863
  C188     1.0000 0.71414  0.21414  0.75000  Biso   1.000  C  0.081425
  C189     1.0000 0.25000  0.43337  0.06663  Biso   1.000  C  0.624868
  C190     1.0000 0.25000  0.39573  0.10427  Biso   1.000  C  -0.039950
  C191     1.0000 0.25000  0.32385  0.17615  Biso   1.000  C  0.082132
  C192     1.0000 0.25000  0.28586  0.21414  Biso   1.000  C  0.079830
  C193     1.0000 0.75000  0.43337  0.93337  Biso   1.000  C  0.624860
  C194     1.0000 0.75000  0.39573  0.89573  Biso   1.000  C  -0.039929
  C195     1.0000 0.75000  0.32385  0.82385  Biso   1.000  C  0.082117
  C196     1.0000 0.75000  0.28586  0.78586  Biso   1.000  C  0.079845
  C197     1.0000 0.25000  0.56663  0.93337  Biso   1.000  C  0.624858
  C198     1.0000 0.25000  0.60427  0.89573  Biso   1.000  C  -0.039935
  C199     1.0000 0.25000  0.67615  0.82385  Biso   1.000  C  0.082132
  C200     1.0000 0.25000  0.71414  0.78586  Biso   1.000  C  0.079833
  C201     1.0000 0.75000  0.56663  0.06663  Biso   1.000  C  0.624864
  C202     1.0000 0.75000  0.60427  0.10427  Biso   1.000  C  -0.039951
  C203     1.0000 0.75000  0.67615  0.17615  Biso   1.000  C  0.082142
  C204     1.0000 0.75000  0.71414  0.21414  Biso   1.000  C  0.079824
  C205     1.0000 0.75000  0.78491  0.71509  Biso   1.000  C  -0.171635
  C206     1.0000 0.25000  0.21509  0.71509  Biso   1.000  C  -0.171638
  C207     1.0000 0.25000  0.78491  0.28491  Biso   1.000  C  -0.171633
  C208     1.0000 0.75000  0.21509  0.28491  Biso   1.000  C  -0.171639
  C209     1.0000 0.71509  0.75000  0.78491  Biso   1.000  C  -0.171153
  C210     1.0000 0.71509  0.25000  0.21509  Biso   1.000  C  -0.171155
  C211     1.0000 0.28491  0.25000  0.78491  Biso   1.000  C  -0.171151
  C212     1.0000 0.28491  0.75000  0.21509  Biso   1.000  C  -0.171159
  C213     1.0000 0.78491  0.71509  0.75000  Biso   1.000  C  -0.171392
  C214     1.0000 0.21509  0.71509  0.25000  Biso   1.000  C  -0.171401
  C215     1.0000 0.78491  0.28491  0.25000  Biso   1.000  C  -0.171403
  C216     1.0000 0.21509  0.28491  0.75000  Biso   1.000  C  -0.171400
  C217     1.0000 0.25000  0.21509  0.28491  Biso   1.000  C  -0.171639
  C218     1.0000 0.75000  0.78491  0.28491  Biso   1.000  C  -0.171634
  C219     1.0000 0.75000  0.21509  0.71509  Biso   1.000  C  -0.171640
  C220     1.0000 0.25000  0.78491  0.71509  Biso   1.000  C  -0.171632
  C221     1.0000 0.28491  0.25000  0.21509  Biso   1.000  C  -0.171156
  C222     1.0000 0.28491  0.75000  0.78491  Biso   1.000  C  -0.171154
  C223     1.0000 0.71509  0.75000  0.21509  Biso   1.000  C  -0.171159
  C224     1.0000 0.71509  0.25000  0.78491  Biso   1.000  C  -0.171150
  C225     1.0000 0.21509  0.28491  0.25000  Biso   1.000  C  -0.171403
  C226     1.0000 0.78491  0.28491  0.75000  Biso   1.000  C  -0.171394
  C227     1.0000 0.21509  0.71509  0.75000  Biso   1.000  C  -0.171398
  C228     1.0000 0.78491  0.71509  0.25000  Biso   1.000  C  -0.171401
  C229     1.0000 0.95920  0.89800  0.50000  Biso   1.000  C  0.116770
  C230     1.0000 0.95690  0.94940  0.50000  Biso   1.000  C  -0.168918
  C231     1.0000 0.04080  0.10200  0.50000  Biso   1.000  C  0.116779
  C232     1.0000 0.04310  0.05060  0.50000  Biso   1.000  C  -0.168909
  C233     1.0000 0.04080  0.89800  0.50000  Biso   1.000  C  0.116776
  C234     1.0000 0.04310  0.94940  0.50000  Biso   1.000  C  -0.168907
  C235     1.0000 0.95920  0.10200  0.50000  Biso   1.000  C  0.116772
  C236     1.0000 0.95690  0.05060  0.50000  Biso   1.000  C  -0.168916
  C237     1.0000 0.50000  0.95920  0.89800  Biso   1.000  C  0.116760
  C238     1.0000 0.50000  0.95690  0.94940  Biso   1.000  C  -0.168902
  C239     1.0000 0.50000  0.04080  0.10200  Biso   1.000  C  0.116788
  C240     1.0000 0.50000  0.04310  0.05060  Biso   1.000  C  -0.168888
  C241     1.0000 0.50000  0.04080  0.89800  Biso   1.000  C  0.116773
  C242     1.0000 0.50000  0.04310  0.94940  Biso   1.000  C  -0.168883
  C243     1.0000 0.50000  0.95920  0.10200  Biso   1.000  C  0.116775
  C244     1.0000 0.50000  0.95690  0.05060  Biso   1.000  C  -0.168903
  C245     1.0000 0.89800  0.50000  0.95920  Biso   1.000  C  0.116758
  C246     1.0000 0.94940  0.50000  0.95690  Biso   1.000  C  -0.168888
  C247     1.0000 0.10200  0.50000  0.04080  Biso   1.000  C  0.116775
  C248     1.0000 0.05060  0.50000  0.04310  Biso   1.000  C  -0.168867
  C249     1.0000 0.89800  0.50000  0.04080  Biso   1.000  C  0.116774
  C250     1.0000 0.94940  0.50000  0.04310  Biso   1.000  C  -0.168864
  C251     1.0000 0.10200  0.50000  0.95920  Biso   1.000  C  0.116759
  C252     1.0000 0.05060  0.50000  0.95690  Biso   1.000  C  -0.168885
  C253     1.0000 0.39800  0.45920  0.00000  Biso   1.000  C  0.116876
  C254     1.0000 0.44940  0.45690  0.00000  Biso   1.000  C  -0.169301
  C255     1.0000 0.60200  0.54080  0.00000  Biso   1.000  C  0.114649
  C256     1.0000 0.55060  0.54310  0.00000  Biso   1.000  C  -0.168728
  C257     1.0000 0.39800  0.54080  0.00000  Biso   1.000  C  0.114650
  C258     1.0000 0.44940  0.54310  0.00000  Biso   1.000  C  -0.168727
  C259     1.0000 0.60200  0.45920  0.00000  Biso   1.000  C  0.116874
  C260     1.0000 0.55060  0.45690  0.00000  Biso   1.000  C  -0.169299
  C261     1.0000 0.45920  0.00000  0.60200  Biso   1.000  C  0.117056
  C262     1.0000 0.45690  0.00000  0.55060  Biso   1.000  C  -0.169179
  C263     1.0000 0.54080  0.00000  0.39800  Biso   1.000  C  0.116435
  C264     1.0000 0.54310  0.00000  0.44940  Biso   1.000  C  -0.167848
  C265     1.0000 0.54080  0.00000  0.60200  Biso   1.000  C  0.114972
  C266     1.0000 0.54310  0.00000  0.55060  Biso   1.000  C  -0.169709
  C267     1.0000 0.45920  0.00000  0.39800  Biso   1.000  C  0.116588
  C268     1.0000 0.45690  0.00000  0.44940  Biso   1.000  C  -0.169028
  C269     1.0000 0.00000  0.39800  0.54080  Biso   1.000  C  0.114657
  C270     1.0000 0.00000  0.44940  0.54310  Biso   1.000  C  -0.168766
  C271     1.0000 0.00000  0.60200  0.45920  Biso   1.000  C  0.116884
  C272     1.0000 0.00000  0.55060  0.45690  Biso   1.000  C  -0.169336
  C273     1.0000 0.00000  0.39800  0.45920  Biso   1.000  C  0.116886
  C274     1.0000 0.00000  0.44940  0.45690  Biso   1.000  C  -0.169334
  C275     1.0000 0.00000  0.60200  0.54080  Biso   1.000  C  0.114654
  C276     1.0000 0.00000  0.55060  0.54310  Biso   1.000  C  -0.168764
  H1       1.0000 0.82875  0.67269  0.67427  Biso   1.000  H  0.083294
  H2       1.0000 0.89129  0.67131  0.60838  Biso   1.000  H  0.092186
  H3       1.0000 0.17125  0.32731  0.67427  Biso   1.000  H  0.083291
  H4       1.0000 0.10871  0.32869  0.60838  Biso   1.000  H  0.092178
  H5       1.0000 0.17125  0.67269  0.32573  Biso   1.000  H  0.083305
  H6       1.0000 0.10871  0.67131  0.39162  Biso   1.000  H  0.092227
  H7       1.0000 0.82875  0.32731  0.32573  Biso   1.000  H  0.083305
  H8       1.0000 0.89129  0.32869  0.39162  Biso   1.000  H  0.092224
  H9       1.0000 0.67427  0.82875  0.67269  Biso   1.000  H  0.083476
  H10      1.0000 0.60838  0.89129  0.67131  Biso   1.000  H  0.092180
  H11      1.0000 0.67427  0.17125  0.32731  Biso   1.000  H  0.083474
  H12      1.0000 0.60838  0.10871  0.32869  Biso   1.000  H  0.092287
  H13      1.0000 0.32573  0.17125  0.67269  Biso   1.000  H  0.083484
  H14      1.0000 0.39162  0.10871  0.67131  Biso   1.000  H  0.092240
  H15      1.0000 0.32573  0.82875  0.32731  Biso   1.000  H  0.083479
  H16      1.0000 0.39162  0.89129  0.32869  Biso   1.000  H  0.092276
  H17      1.0000 0.67269  0.67427  0.82875  Biso   1.000  H  0.083586
  H18      1.0000 0.67131  0.60838  0.89129  Biso   1.000  H  0.092260
  H19      1.0000 0.32731  0.67427  0.17125  Biso   1.000  H  0.083588
  H20      1.0000 0.32869  0.60838  0.10871  Biso   1.000  H  0.092251
  H21      1.0000 0.67269  0.32573  0.17125  Biso   1.000  H  0.083603
  H22      1.0000 0.67131  0.39162  0.10871  Biso   1.000  H  0.092300
  H23      1.0000 0.32731  0.32573  0.82875  Biso   1.000  H  0.083600
  H24      1.0000 0.32869  0.39162  0.89129  Biso   1.000  H  0.092306
  H25      1.0000 0.17269  0.32875  0.82573  Biso   1.000  H  0.083598
  H26      1.0000 0.17131  0.39129  0.89162  Biso   1.000  H  0.092288
  H27      1.0000 0.82731  0.67125  0.82573  Biso   1.000  H  0.083607
  H28      1.0000 0.82869  0.60871  0.89162  Biso   1.000  H  0.092301
  H29      1.0000 0.17269  0.67125  0.17427  Biso   1.000  H  0.083620
  H30      1.0000 0.17131  0.60871  0.10838  Biso   1.000  H  0.092299
  H31      1.0000 0.82731  0.32875  0.17427  Biso   1.000  H  0.083612
  H32      1.0000 0.82869  0.39129  0.10838  Biso   1.000  H  0.092289
  H33      1.0000 0.32875  0.17427  0.82731  Biso   1.000  H  0.083452
  H34      1.0000 0.39129  0.10838  0.82869  Biso   1.000  H  0.092265
  H35      1.0000 0.67125  0.17427  0.17269  Biso   1.000  H  0.083436
  H36      1.0000 0.60871  0.10838  0.17131  Biso   1.000  H  0.092252
  H37      1.0000 0.67125  0.82573  0.82731  Biso   1.000  H  0.083449
  H38      1.0000 0.60871  0.89162  0.82869  Biso   1.000  H  0.092273
  H39      1.0000 0.32875  0.82573  0.17269  Biso   1.000  H  0.083426
  H40      1.0000 0.39129  0.89162  0.17131  Biso   1.000  H  0.092249
  H41      1.0000 0.17427  0.17269  0.67125  Biso   1.000  H  0.083321
  H42      1.0000 0.10838  0.17131  0.60871  Biso   1.000  H  0.092227
  H43      1.0000 0.17427  0.82731  0.32875  Biso   1.000  H  0.083319
  H44      1.0000 0.10838  0.82869  0.39129  Biso   1.000  H  0.092218
  H45      1.0000 0.82573  0.17269  0.32875  Biso   1.000  H  0.083317
  H46      1.0000 0.89162  0.17131  0.39129  Biso   1.000  H  0.092213
  H47      1.0000 0.82573  0.82731  0.67125  Biso   1.000  H  0.083311
  H48      1.0000 0.89162  0.82869  0.60871  Biso   1.000  H  0.092228
  H49      1.0000 0.17125  0.32731  0.32573  Biso   1.000  H  0.083304
  H50      1.0000 0.10871  0.32869  0.39162  Biso   1.000  H  0.092222
  H51      1.0000 0.82875  0.67269  0.32573  Biso   1.000  H  0.083305
  H52      1.0000 0.89129  0.67131  0.39162  Biso   1.000  H  0.092226
  H53      1.0000 0.82875  0.32731  0.67427  Biso   1.000  H  0.083292
  H54      1.0000 0.89129  0.32869  0.60838  Biso   1.000  H  0.092181
  H55      1.0000 0.17125  0.67269  0.67427  Biso   1.000  H  0.083291
  H56      1.0000 0.10871  0.67131  0.60838  Biso   1.000  H  0.092180
  H57      1.0000 0.32573  0.17125  0.32731  Biso   1.000  H  0.083476
  H58      1.0000 0.39162  0.10871  0.32869  Biso   1.000  H  0.092269
  H59      1.0000 0.32573  0.82875  0.67269  Biso   1.000  H  0.083485
  H60      1.0000 0.39162  0.89129  0.67131  Biso   1.000  H  0.092243
  H61      1.0000 0.67427  0.82875  0.32731  Biso   1.000  H  0.083475
  H62      1.0000 0.60838  0.89129  0.32869  Biso   1.000  H  0.092290
  H63      1.0000 0.67427  0.17125  0.67269  Biso   1.000  H  0.083472
  H64      1.0000 0.60838  0.10871  0.67131  Biso   1.000  H  0.092173
  H65      1.0000 0.32731  0.32573  0.17125  Biso   1.000  H  0.083601
  H66      1.0000 0.32869  0.39162  0.10871  Biso   1.000  H  0.092297
  H67      1.0000 0.67269  0.32573  0.82875  Biso   1.000  H  0.083599
  H68      1.0000 0.67131  0.39162  0.89129  Biso   1.000  H  0.092307
  H69      1.0000 0.32731  0.67427  0.82875  Biso   1.000  H  0.083586
  H70      1.0000 0.32869  0.60838  0.89129  Biso   1.000  H  0.092255
  H71      1.0000 0.67269  0.67427  0.17125  Biso   1.000  H  0.083588
  H72      1.0000 0.67131  0.60838  0.10871  Biso   1.000  H  0.092249
  H73      1.0000 0.82731  0.67125  0.17427  Biso   1.000  H  0.083619
  H74      1.0000 0.82869  0.60871  0.10838  Biso   1.000  H  0.092298
  H75      1.0000 0.17269  0.32875  0.17427  Biso   1.000  H  0.083610
  H76      1.0000 0.17131  0.39129  0.10838  Biso   1.000  H  0.092286
  H77      1.0000 0.82731  0.32875  0.82573  Biso   1.000  H  0.083598
  H78      1.0000 0.82869  0.39129  0.89162  Biso   1.000  H  0.092289
  H79      1.0000 0.17269  0.67125  0.82573  Biso   1.000  H  0.083605
  H80      1.0000 0.17131  0.60871  0.89162  Biso   1.000  H  0.092296
  H81      1.0000 0.67125  0.82573  0.17269  Biso   1.000  H  0.083423
  H82      1.0000 0.60871  0.89162  0.17131  Biso   1.000  H  0.092246
  H83      1.0000 0.32875  0.82573  0.82731  Biso   1.000  H  0.083438
  H84      1.0000 0.39129  0.89162  0.82869  Biso   1.000  H  0.092259
  H85      1.0000 0.32875  0.17427  0.17269  Biso   1.000  H  0.083437
  H86      1.0000 0.39129  0.10838  0.17131  Biso   1.000  H  0.092251
  H87      1.0000 0.67125  0.17427  0.82731  Biso   1.000  H  0.083461
  H88      1.0000 0.60871  0.10838  0.82869  Biso   1.000  H  0.092275
  H89      1.0000 0.82573  0.82731  0.32875  Biso   1.000  H  0.083317
  H90      1.0000 0.89162  0.82869  0.39129  Biso   1.000  H  0.092215
  H91      1.0000 0.82573  0.17269  0.67125  Biso   1.000  H  0.083308
  H92      1.0000 0.89162  0.17131  0.60871  Biso   1.000  H  0.092223
  H93      1.0000 0.17427  0.82731  0.67125  Biso   1.000  H  0.083321
  H94      1.0000 0.10838  0.82869  0.60871  Biso   1.000  H  0.092228
  H95      1.0000 0.17427  0.17269  0.32875  Biso   1.000  H  0.083316
  H96      1.0000 0.10838  0.17131  0.39129  Biso   1.000  H  0.092213
  H97      1.0000 0.74922  0.81436  0.68642  Biso   1.000  H  0.086637
  H98      1.0000 0.25078  0.18564  0.68642  Biso   1.000  H  0.086648
  H99      1.0000 0.25078  0.81436  0.31358  Biso   1.000  H  0.086653
  H100     1.0000 0.74922  0.18564  0.31358  Biso   1.000  H  0.086646
  H101     1.0000 0.68642  0.74922  0.81436  Biso   1.000  H  0.085590
  H102     1.0000 0.68642  0.25078  0.18564  Biso   1.000  H  0.085600
  H103     1.0000 0.31358  0.25078  0.81436  Biso   1.000  H  0.085605
  H104     1.0000 0.31358  0.74922  0.18564  Biso   1.000  H  0.085582
  H105     1.0000 0.81358  0.68564  0.75078  Biso   1.000  H  0.086121
  H106     1.0000 0.18642  0.68564  0.24922  Biso   1.000  H  0.086129
  H107     1.0000 0.81358  0.31436  0.24922  Biso   1.000  H  0.086126
  H108     1.0000 0.18642  0.31436  0.75078  Biso   1.000  H  0.086113
  H109     1.0000 0.25078  0.18564  0.31358  Biso   1.000  H  0.086648
  H110     1.0000 0.74922  0.81436  0.31358  Biso   1.000  H  0.086651
  H111     1.0000 0.74922  0.18564  0.68642  Biso   1.000  H  0.086632
  H112     1.0000 0.25078  0.81436  0.68642  Biso   1.000  H  0.086653
  H113     1.0000 0.31358  0.25078  0.18564  Biso   1.000  H  0.085600
  H114     1.0000 0.31358  0.74922  0.81436  Biso   1.000  H  0.085587
  H115     1.0000 0.68642  0.74922  0.18564  Biso   1.000  H  0.085582
  H116     1.0000 0.68642  0.25078  0.81436  Biso   1.000  H  0.085608
  H117     1.0000 0.18642  0.31436  0.24922  Biso   1.000  H  0.086126
  H118     1.0000 0.81358  0.31436  0.75078  Biso   1.000  H  0.086118
  H119     1.0000 0.18642  0.68564  0.75078  Biso   1.000  H  0.086115
  H120     1.0000 0.81358  0.68564  0.24922  Biso   1.000  H  0.086129
  H121     1.0000 0.92456  0.87588  0.50000  Biso   1.000  H  0.098547
  H122     1.0000 0.92148  0.97026  0.50000  Biso   1.000  H  0.116207
  H123     1.0000 0.07544  0.12412  0.50000  Biso   1.000  H  0.098558
  H124     1.0000 0.07852  0.02974  0.50000  Biso   1.000  H  0.116217
  H125     1.0000 0.07544  0.87588  0.50000  Biso   1.000  H  0.098555
  H126     1.0000 0.07852  0.97026  0.50000  Biso   1.000  H  0.116210
  H127     1.0000 0.92456  0.12412  0.50000  Biso   1.000  H  0.098549
  H128     1.0000 0.92148  0.02974  0.50000  Biso   1.000  H  0.116198
  H129     1.0000 0.50000  0.92456  0.87588  Biso   1.000  H  0.098536
  H130     1.0000 0.50000  0.92148  0.97026  Biso   1.000  H  0.116214
  H131     1.0000 0.50000  0.07544  0.12412  Biso   1.000  H  0.098565
  H132     1.0000 0.50000  0.07852  0.02974  Biso   1.000  H  0.116228
  H133     1.0000 0.50000  0.07544  0.87588  Biso   1.000  H  0.098553
  H134     1.0000 0.50000  0.07852  0.97026  Biso   1.000  H  0.116228
  H135     1.0000 0.50000  0.92456  0.12412  Biso   1.000  H  0.098549
  H136     1.0000 0.50000  0.92148  0.02974  Biso   1.000  H  0.116197
  H137     1.0000 0.87588  0.50000  0.92456  Biso   1.000  H  0.098531
  H138     1.0000 0.97026  0.50000  0.92148  Biso   1.000  H  0.116231
  H139     1.0000 0.12412  0.50000  0.07544  Biso   1.000  H  0.098553
  H140     1.0000 0.02974  0.50000  0.07852  Biso   1.000  H  0.116256
  H141     1.0000 0.87588  0.50000  0.07544  Biso   1.000  H  0.098553
  H142     1.0000 0.97026  0.50000  0.07852  Biso   1.000  H  0.116249
  H143     1.0000 0.12412  0.50000  0.92456  Biso   1.000  H  0.098533
  H144     1.0000 0.02974  0.50000  0.92148  Biso   1.000  H  0.116223
  H145     1.0000 0.37588  0.42456  0.00000  Biso   1.000  H  0.098422
  H146     1.0000 0.47026  0.42148  0.00000  Biso   1.000  H  0.116654
  H147     1.0000 0.62412  0.57544  0.00000  Biso   1.000  H  0.098559
  H148     1.0000 0.53166  0.57958  0.00000  Biso   1.000  H  0.117038
  H149     1.0000 0.37588  0.57544  0.00000  Biso   1.000  H  0.098560
  H150     1.0000 0.46834  0.57958  0.00000  Biso   1.000  H  0.117030
  H151     1.0000 0.62412  0.42456  0.00000  Biso   1.000  H  0.098420
  H152     1.0000 0.52974  0.42148  0.00000  Biso   1.000  H  0.116646
  H153     1.0000 0.42456  0.00000  0.62412  Biso   1.000  H  0.098518
  H154     1.0000 0.42148  0.00000  0.52974  Biso   1.000  H  0.116849
  H155     1.0000 0.57544  0.00000  0.37588  Biso   1.000  H  0.098491
  H156     1.0000 0.57852  0.00000  0.47026  Biso   1.000  H  0.115139
  H157     1.0000 0.57544  0.00000  0.62412  Biso   1.000  H  0.098613
  H158     1.0000 0.57958  0.00000  0.53166  Biso   1.000  H  0.118072
  H159     1.0000 0.42456  0.00000  0.37588  Biso   1.000  H  0.098451
  H160     1.0000 0.42148  0.00000  0.47026  Biso   1.000  H  0.116023
  H161     1.0000 0.00000  0.37588  0.57544  Biso   1.000  H  0.098568
  H162     1.0000 0.00000  0.46834  0.57958  Biso   1.000  H  0.117000
  H163     1.0000 0.00000  0.62412  0.42456  Biso   1.000  H  0.098431
  H164     1.0000 0.00000  0.52974  0.42148  Biso   1.000  H  0.116622
  H165     1.0000 0.00000  0.37588  0.42456  Biso   1.000  H  0.098434
  H166     1.0000 0.00000  0.47026  0.42148  Biso   1.000  H  0.116612
  H167     1.0000 0.00000  0.62412  0.57544  Biso   1.000  H  0.098565
  H168     1.0000 0.00000  0.53166  0.57958  Biso   1.000  H  0.116993
  N1       1.0000 0.00000  0.87411  0.50000  Biso   1.000  N  -0.182440
  N2       1.0000 0.00000  0.12589  0.50000  Biso   1.000  N  -0.182435
  N3       1.0000 0.50000  0.00000  0.87411  Biso   1.000  N  -0.182471
  N4       1.0000 0.50000  0.00000  0.12589  Biso   1.000  N  -0.182438
  N5       1.0000 0.87411  0.50000  0.00000  Biso   1.000  N  -0.182482
  N6       1.0000 0.12589  0.50000  0.00000  Biso   1.000  N  -0.182479
  N7       1.0000 0.37411  0.50000  0.00000  Biso   1.000  N  -0.182489
  N8       1.0000 0.62589  0.50000  0.00000  Biso   1.000  N  -0.182491
  N9       1.0000 0.50000  0.00000  0.62589  Biso   1.000  N  -0.182447
  N10      1.0000 0.50000  0.00000  0.37411  Biso   1.000  N  -0.182495
  N11      1.0000 0.00000  0.37411  0.50000  Biso   1.000  N  -0.182441
  N12      1.0000 0.00000  0.62589  0.50000  Biso   1.000  N  -0.182446
  O1       1.0000 0.94838  0.78961  0.55142  Biso   1.000  O  -0.571886
  O2       1.0000 0.05162  0.21039  0.55142  Biso   1.000  O  -0.571890
  O3       1.0000 0.05162  0.78961  0.44858  Biso   1.000  O  -0.571905
  O4       1.0000 0.94838  0.21039  0.44858  Biso   1.000  O  -0.571907
  O5       1.0000 0.55142  0.94838  0.78961  Biso   1.000  O  -0.571847
  O6       1.0000 0.55142  0.05162  0.21039  Biso   1.000  O  -0.571893
  O7       1.0000 0.44858  0.05162  0.78961  Biso   1.000  O  -0.571867
  O8       1.0000 0.44858  0.94838  0.21039  Biso   1.000  O  -0.571888
  O9       1.0000 0.78961  0.55142  0.94838  Biso   1.000  O  -0.571869
  O10      1.0000 0.21039  0.55142  0.05162  Biso   1.000  O  -0.571874
  O11      1.0000 0.78961  0.44858  0.05162  Biso   1.000  O  -0.571890
  O12      1.0000 0.21039  0.44858  0.94838  Biso   1.000  O  -0.571886
  O13      1.0000 0.28961  0.44838  0.94858  Biso   1.000  O  -0.571789
  O14      1.0000 0.71039  0.55162  0.94858  Biso   1.000  O  -0.571778
  O15      1.0000 0.28961  0.55162  0.05142  Biso   1.000  O  -0.571785
  O16      1.0000 0.71039  0.44838  0.05142  Biso   1.000  O  -0.571794
  O17      1.0000 0.44838  0.05142  0.71039  Biso   1.000  O  -0.571862
  O18      1.0000 0.55162  0.05142  0.28961  Biso   1.000  O  -0.571817
  O19      1.0000 0.55162  0.94858  0.71039  Biso   1.000  O  -0.571860
  O20      1.0000 0.44838  0.94858  0.28961  Biso   1.000  O  -0.571825
  O21      1.0000 0.05142  0.28961  0.55162  Biso   1.000  O  -0.571802
  O22      1.0000 0.05142  0.71039  0.44838  Biso   1.000  O  -0.571812
  O23      1.0000 0.94858  0.28961  0.44838  Biso   1.000  O  -0.571814
  O24      1.0000 0.94858  0.71039  0.55162  Biso   1.000  O  -0.571797
  O25      1.0000 0.05162  0.21039  0.44858  Biso   1.000  O  -0.571907
  O26      1.0000 0.94838  0.78961  0.44858  Biso   1.000  O  -0.571905
  O27      1.0000 0.94838  0.21039  0.55142  Biso   1.000  O  -0.571888
  O28      1.0000 0.05162  0.78961  0.55142  Biso   1.000  O  -0.571888
  O29      1.0000 0.44858  0.05162  0.21039  Biso   1.000  O  -0.571890
  O30      1.0000 0.44858  0.94838  0.78961  Biso   1.000  O  -0.571866
  O31      1.0000 0.55142  0.94838  0.21039  Biso   1.000  O  -0.571892
  O32      1.0000 0.55142  0.05162  0.78961  Biso   1.000  O  -0.571848
  O33      1.0000 0.21039  0.44858  0.05162  Biso   1.000  O  -0.571890
  O34      1.0000 0.78961  0.44858  0.94838  Biso   1.000  O  -0.571884
  O35      1.0000 0.21039  0.55142  0.94838  Biso   1.000  O  -0.571871
  O36      1.0000 0.78961  0.55142  0.05162  Biso   1.000  O  -0.571874
  O37      1.0000 0.71039  0.55162  0.05142  Biso   1.000  O  -0.571785
  O38      1.0000 0.28961  0.44838  0.05142  Biso   1.000  O  -0.571794
  O39      1.0000 0.71039  0.44838  0.94858  Biso   1.000  O  -0.571787
  O40      1.0000 0.28961  0.55162  0.94858  Biso   1.000  O  -0.571780
  O41      1.0000 0.55162  0.94858  0.28961  Biso   1.000  O  -0.571813
  O42      1.0000 0.44838  0.94858  0.71039  Biso   1.000  O  -0.571858
  O43      1.0000 0.44838  0.05142  0.28961  Biso   1.000  O  -0.571829
  O44      1.0000 0.55162  0.05142  0.71039  Biso   1.000  O  -0.571864
  O45      1.0000 0.94858  0.71039  0.44838  Biso   1.000  O  -0.571812
  O46      1.0000 0.94858  0.28961  0.55162  Biso   1.000  O  -0.571799
  O47      1.0000 0.05142  0.71039  0.55162  Biso   1.000  O  -0.571800
  O48      1.0000 0.05142  0.28961  0.44838  Biso   1.000  O  -0.571814
  Zn1      1.0000 0.00000  0.80126  0.50000  Biso   1.000  Zn  0.853203
  Zn2      1.0000 0.00000  0.19874  0.50000  Biso   1.000  Zn  0.853202
  Zn3      1.0000 0.50000  0.00000  0.80126  Biso   1.000  Zn  0.853198
  Zn4      1.0000 0.50000  0.00000  0.19874  Biso   1.000  Zn  0.853202
  Zn5      1.0000 0.80126  0.50000  0.00000  Biso   1.000  Zn  0.853220
  Zn6      1.0000 0.19874  0.50000  0.00000  Biso   1.000  Zn  0.853220
  Zn7      1.0000 0.30126  0.50000  0.00000  Biso   1.000  Zn  0.852925
  Zn8      1.0000 0.69874  0.50000  0.00000  Biso   1.000  Zn  0.852925
  Zn9      1.0000 0.50000  0.00000  0.69874  Biso   1.000  Zn  0.852936
  Zn10     1.0000 0.50000  0.00000  0.30126  Biso   1.000  Zn  0.853170
  Zn11     1.0000 0.00000  0.30126  0.50000  Biso   1.000  Zn  0.852908
  Zn12     1.0000 0.00000  0.69874  0.50000  Biso   1.000  Zn  0.852909
