data_image0
_cell_length_a       10.4985
_cell_length_b       14.5262
_cell_length_c       20.636
_cell_angle_alpha    90
_cell_angle_beta     97.611
_cell_angle_gamma    90

_symmetry_space_group_name_H-M    "P 1"
_symmetry_int_tables_number       1

loop_
  _symmetry_equiv_pos_as_xyz
  'x, y, z'

loop_
  _atom_site_label
  _atom_site_occupancy
  _atom_site_fract_x
  _atom_site_fract_y
  _atom_site_fract_z
  _atom_site_thermal_displace_type
  _atom_site_B_iso_or_equiv
  _atom_site_type_symbol
  _atom_site_charge
  C1       1.0000 0.50000  0.16261  0.25000  Biso   1.000  C  -0.003147
  C2       1.0000 0.50000  0.83739  0.75000  Biso   1.000  C  -0.003147
  C3       1.0000 0.61873  0.22189  0.26937  Biso   1.000  C  0.036438
  C4       1.0000 0.38127  0.22189  0.23063  Biso   1.000  C  0.036438
  C5       1.0000 0.38127  0.77811  0.73063  Biso   1.000  C  0.036438
  C6       1.0000 0.61873  0.77811  0.76937  Biso   1.000  C  0.036438
  C7       1.0000 0.63598  0.28702  0.31807  Biso   1.000  C  -0.193560
  C8       1.0000 0.36402  0.28702  0.18193  Biso   1.000  C  -0.193560
  C9       1.0000 0.36402  0.71298  0.68193  Biso   1.000  C  -0.193560
  C10      1.0000 0.63598  0.71298  0.81807  Biso   1.000  C  -0.193561
  C11      1.0000 0.75075  0.33725  0.32732  Biso   1.000  C  0.059940
  C12      1.0000 0.24925  0.33725  0.17268  Biso   1.000  C  0.059940
  C13      1.0000 0.24925  0.66275  0.67268  Biso   1.000  C  0.059940
  C14      1.0000 0.75075  0.66275  0.82732  Biso   1.000  C  0.059940
  C15      1.0000 0.84438  0.31935  0.28626  Biso   1.000  C  -0.116616
  C16      1.0000 0.15562  0.31935  0.21374  Biso   1.000  C  -0.116616
  C17      1.0000 0.15562  0.68065  0.71374  Biso   1.000  C  -0.116616
  C18      1.0000 0.84438  0.68065  0.78626  Biso   1.000  C  -0.116616
  C19      1.0000 0.82631  0.25394  0.23732  Biso   1.000  C  -0.108783
  C20      1.0000 0.17369  0.25394  0.26268  Biso   1.000  C  -0.108783
  C21      1.0000 0.17369  0.74606  0.76268  Biso   1.000  C  -0.108783
  C22      1.0000 0.82631  0.74606  0.73732  Biso   1.000  C  -0.108783
  C23      1.0000 0.71182  0.20459  0.22827  Biso   1.000  C  0.024030
  C24      1.0000 0.28818  0.20459  0.27173  Biso   1.000  C  0.024030
  C25      1.0000 0.28818  0.79541  0.77173  Biso   1.000  C  0.024030
  C26      1.0000 0.71182  0.79541  0.72827  Biso   1.000  C  0.024030
  C27      1.0000 0.66383  0.13260  0.18163  Biso   1.000  C  0.034693
  C28      1.0000 0.33617  0.13260  0.31837  Biso   1.000  C  0.034693
  C29      1.0000 0.33617  0.86740  0.81837  Biso   1.000  C  0.034693
  C30      1.0000 0.66383  0.86740  0.68163  Biso   1.000  C  0.034693
  C31      1.0000 0.71776  0.08940  0.13172  Biso   1.000  C  -0.117658
  C32      1.0000 0.28224  0.08940  0.36828  Biso   1.000  C  -0.117658
  C33      1.0000 0.28224  0.91060  0.86828  Biso   1.000  C  -0.117658
  C34      1.0000 0.71776  0.91060  0.63172  Biso   1.000  C  -0.117658
  C35      1.0000 0.64901  0.01985  0.09676  Biso   1.000  C  -0.147272
  C36      1.0000 0.35099  0.01985  0.40324  Biso   1.000  C  -0.147272
  C37      1.0000 0.35099  0.98015  0.90324  Biso   1.000  C  -0.147272
  C38      1.0000 0.64901  0.98015  0.59676  Biso   1.000  C  -0.147272
  C39      1.0000 0.52732  0.99215  0.11004  Biso   1.000  C  0.057576
  C40      1.0000 0.47268  0.99215  0.38996  Biso   1.000  C  0.057576
  C41      1.0000 0.47268  0.00785  0.88996  Biso   1.000  C  0.057576
  C42      1.0000 0.52732  0.00785  0.61004  Biso   1.000  C  0.057576
  C43      1.0000 0.47325  0.03733  0.15991  Biso   1.000  C  -0.192900
  C44      1.0000 0.52675  0.03733  0.34009  Biso   1.000  C  -0.192900
  C45      1.0000 0.52675  0.96267  0.84009  Biso   1.000  C  -0.192900
  C46      1.0000 0.47325  0.96267  0.65991  Biso   1.000  C  -0.192900
  C47      1.0000 0.54087  0.10645  0.19466  Biso   1.000  C  0.042381
  C48      1.0000 0.45913  0.10645  0.30534  Biso   1.000  C  0.042382
  C49      1.0000 0.45913  0.89355  0.80534  Biso   1.000  C  0.042382
  C50      1.0000 0.54087  0.89355  0.69466  Biso   1.000  C  0.042382
  C51      1.0000 0.71110  0.48350  0.47297  Biso   1.000  C  0.088548
  C52      1.0000 0.28890  0.48350  0.02703  Biso   1.000  C  0.088548
  C53      1.0000 0.28890  0.51650  0.52703  Biso   1.000  C  0.088548
  C54      1.0000 0.71110  0.51650  0.97297  Biso   1.000  C  0.088548
  C55      1.0000 0.69140  0.41570  0.42653  Biso   1.000  C  -0.184347
  C56      1.0000 0.30860  0.41570  0.07347  Biso   1.000  C  -0.184347
  C57      1.0000 0.30860  0.58430  0.57347  Biso   1.000  C  -0.184347
  C58      1.0000 0.69140  0.58430  0.92653  Biso   1.000  C  -0.184347
  C59      1.0000 0.77064  0.40882  0.37857  Biso   1.000  C  0.122748
  C60      1.0000 0.22936  0.40882  0.12143  Biso   1.000  C  0.122748
  C61      1.0000 0.22936  0.59118  0.62143  Biso   1.000  C  0.122748
  C62      1.0000 0.77064  0.59118  0.87857  Biso   1.000  C  0.122748
  C63      1.0000 0.86960  0.47183  0.38289  Biso   1.000  C  -0.179713
  C64      1.0000 0.13040  0.47183  0.11711  Biso   1.000  C  -0.179713
  C65      1.0000 0.13040  0.52817  0.61711  Biso   1.000  C  -0.179713
  C66      1.0000 0.86960  0.52817  0.88289  Biso   1.000  C  -0.179713
  C67      1.0000 0.88250  0.53766  0.43088  Biso   1.000  C  0.091714
  C68      1.0000 0.11750  0.53766  0.06912  Biso   1.000  C  0.091714
  C69      1.0000 0.11750  0.46234  0.56912  Biso   1.000  C  0.091714
  C70      1.0000 0.88250  0.46234  0.93088  Biso   1.000  C  0.091714
  C71      1.0000 0.44360  0.77691  0.01091  Biso   1.000  C  0.091484
  C72      1.0000 0.55640  0.77691  0.48909  Biso   1.000  C  0.091485
  C73      1.0000 0.55640  0.22309  0.98909  Biso   1.000  C  0.091485
  C74      1.0000 0.44360  0.22309  0.51091  Biso   1.000  C  0.091484
  C75      1.0000 0.51640  0.84620  0.04339  Biso   1.000  C  -0.191283
  C76      1.0000 0.48360  0.84620  0.45661  Biso   1.000  C  -0.191283
  C77      1.0000 0.48360  0.15380  0.95661  Biso   1.000  C  -0.191283
  C78      1.0000 0.51640  0.15380  0.54339  Biso   1.000  C  -0.191283
  C79      1.0000 0.45586  0.91640  0.07423  Biso   1.000  C  0.118277
  C80      1.0000 0.54414  0.91640  0.42577  Biso   1.000  C  0.118277
  C81      1.0000 0.54414  0.08360  0.92577  Biso   1.000  C  0.118277
  C82      1.0000 0.45586  0.08360  0.57423  Biso   1.000  C  0.118277
  C83      1.0000 0.32271  0.91033  0.07026  Biso   1.000  C  -0.189716
  C84      1.0000 0.67729  0.91033  0.42974  Biso   1.000  C  -0.189716
  C85      1.0000 0.67729  0.08967  0.92974  Biso   1.000  C  -0.189716
  C86      1.0000 0.32271  0.08967  0.57026  Biso   1.000  C  -0.189716
  C87      1.0000 0.25700  0.83819  0.03748  Biso   1.000  C  0.091740
  C88      1.0000 0.74300  0.83819  0.46252  Biso   1.000  C  0.091740
  C89      1.0000 0.74300  0.16181  0.96252  Biso   1.000  C  0.091740
  C90      1.0000 0.25700  0.16181  0.53748  Biso   1.000  C  0.091740
  C91      1.0000 0.02396  0.76479  0.55753  Biso   1.000  C  0.639634
  C92      1.0000 0.97604  0.76479  0.94247  Biso   1.000  C  0.639634
  C93      1.0000 0.97604  0.23521  0.44247  Biso   1.000  C  0.639634
  C94      1.0000 0.02396  0.23521  0.05753  Biso   1.000  C  0.639634
  C95      1.0000 0.12730  0.83861  0.56310  Biso   1.000  C  -0.400963
  C96      1.0000 0.87270  0.83861  0.93690  Biso   1.000  C  -0.400962
  C97      1.0000 0.87270  0.16139  0.43690  Biso   1.000  C  -0.400962
  C98      1.0000 0.12730  0.16139  0.06310  Biso   1.000  C  -0.400962
  C99      1.0000 0.06558  0.92443  0.53080  Biso   1.000  C  0.141448
  C100     1.0000 0.93442  0.92443  0.96920  Biso   1.000  C  0.141448
  C101     1.0000 0.93442  0.07557  0.46920  Biso   1.000  C  0.141447
  C102     1.0000 0.06558  0.07557  0.03080  Biso   1.000  C  0.141447
  C103     1.0000 0.05830  0.93693  0.46330  Biso   1.000  C  -0.156625
  C104     1.0000 0.94170  0.93693  0.03670  Biso   1.000  C  -0.156625
  C105     1.0000 0.94170  0.06307  0.53670  Biso   1.000  C  -0.156625
  C106     1.0000 0.05830  0.06307  0.96330  Biso   1.000  C  -0.156625
  C107     1.0000 0.99371  0.01180  0.43339  Biso   1.000  C  -0.156645
  C108     1.0000 0.00629  0.01180  0.06661  Biso   1.000  C  -0.156645
  C109     1.0000 0.00629  0.98820  0.56661  Biso   1.000  C  -0.156645
  C110     1.0000 0.99371  0.98820  0.93339  Biso   1.000  C  -0.156645
  C111     1.0000 0.68940  0.57106  0.63841  Biso   1.000  C  0.694447
  C112     1.0000 0.31060  0.57106  0.86159  Biso   1.000  C  0.694447
  C113     1.0000 0.31060  0.42894  0.36159  Biso   1.000  C  0.694447
  C114     1.0000 0.68940  0.42894  0.13841  Biso   1.000  C  0.694447
  C115     1.0000 0.61950  0.51950  0.68698  Biso   1.000  C  -0.602864
  C116     1.0000 0.38050  0.51950  0.81302  Biso   1.000  C  -0.602864
  C117     1.0000 0.38050  0.48050  0.31302  Biso   1.000  C  -0.602864
  C118     1.0000 0.61950  0.48050  0.18698  Biso   1.000  C  -0.602864
  Cd1      1.0000 0.80925  0.66036  0.55047  Biso   1.000  Cd  0.800914
  Cd2      1.0000 0.19075  0.66036  0.94953  Biso   1.000  Cd  0.800914
  Cd3      1.0000 0.19075  0.33964  0.44953  Biso   1.000  Cd  0.800914
  Cd4      1.0000 0.80925  0.33964  0.05047  Biso   1.000  Cd  0.800914
  H1       1.0000 0.57090  0.29780  0.34510  Biso   1.000  H  0.128054
  H2       1.0000 0.42910  0.29780  0.15490  Biso   1.000  H  0.128054
  H3       1.0000 0.42910  0.70220  0.65490  Biso   1.000  H  0.128054
  H4       1.0000 0.57090  0.70220  0.84510  Biso   1.000  H  0.128054
  H5       1.0000 0.92250  0.35320  0.29230  Biso   1.000  H  0.118121
  H6       1.0000 0.07750  0.35320  0.20770  Biso   1.000  H  0.118121
  H7       1.0000 0.07750  0.64680  0.70770  Biso   1.000  H  0.118121
  H8       1.0000 0.92250  0.64680  0.79230  Biso   1.000  H  0.118121
  H9       1.0000 0.89110  0.24280  0.21020  Biso   1.000  H  0.122040
  H10      1.0000 0.10890  0.24280  0.28980  Biso   1.000  H  0.122040
  H11      1.0000 0.10890  0.75720  0.78980  Biso   1.000  H  0.122040
  H12      1.0000 0.89110  0.75720  0.71020  Biso   1.000  H  0.122040
  H13      1.0000 0.80010  0.10710  0.12170  Biso   1.000  H  0.119556
  H14      1.0000 0.19990  0.10710  0.37830  Biso   1.000  H  0.119556
  H15      1.0000 0.19990  0.89290  0.87830  Biso   1.000  H  0.119556
  H16      1.0000 0.80010  0.89290  0.62170  Biso   1.000  H  0.119556
  H17      1.0000 0.68570  0.99000  0.06270  Biso   1.000  H  0.101551
  H18      1.0000 0.31430  0.99000  0.43730  Biso   1.000  H  0.101551
  H19      1.0000 0.31430  0.01000  0.93730  Biso   1.000  H  0.101551
  H20      1.0000 0.68570  0.01000  0.56270  Biso   1.000  H  0.101551
  H21      1.0000 0.39050  0.02030  0.16960  Biso   1.000  H  0.123777
  H22      1.0000 0.60950  0.02030  0.33040  Biso   1.000  H  0.123776
  H23      1.0000 0.60950  0.97970  0.83040  Biso   1.000  H  0.123776
  H24      1.0000 0.39050  0.97970  0.66960  Biso   1.000  H  0.123777
  H25      1.0000 0.65500  0.48570  0.50550  Biso   1.000  H  0.085165
  H26      1.0000 0.34500  0.48570  0.99450  Biso   1.000  H  0.085165
  H27      1.0000 0.34500  0.51430  0.49450  Biso   1.000  H  0.085165
  H28      1.0000 0.65500  0.51430  0.00550  Biso   1.000  H  0.085165
  H29      1.0000 0.62280  0.37330  0.42740  Biso   1.000  H  0.120546
  H30      1.0000 0.37720  0.37330  0.07260  Biso   1.000  H  0.120546
  H31      1.0000 0.37720  0.62670  0.57260  Biso   1.000  H  0.120546
  H32      1.0000 0.62280  0.62670  0.92740  Biso   1.000  H  0.120546
  H33      1.0000 0.92950  0.46960  0.35220  Biso   1.000  H  0.134918
  H34      1.0000 0.07050  0.46960  0.14780  Biso   1.000  H  0.134917
  H35      1.0000 0.07050  0.53040  0.64780  Biso   1.000  H  0.134918
  H36      1.0000 0.92950  0.53040  0.85220  Biso   1.000  H  0.134917
  H37      1.0000 0.95210  0.57970  0.43230  Biso   1.000  H  0.103131
  H38      1.0000 0.04790  0.57970  0.06770  Biso   1.000  H  0.103131
  H39      1.0000 0.04790  0.42030  0.56770  Biso   1.000  H  0.103131
  H40      1.0000 0.95210  0.42030  0.93230  Biso   1.000  H  0.103131
  H41      1.0000 0.48660  0.73030  0.98990  Biso   1.000  H  0.097465
  H42      1.0000 0.51340  0.73030  0.51010  Biso   1.000  H  0.097465
  H43      1.0000 0.51340  0.26970  0.01010  Biso   1.000  H  0.097465
  H44      1.0000 0.48660  0.26970  0.48990  Biso   1.000  H  0.097465
  H45      1.0000 0.60720  0.84610  0.04480  Biso   1.000  H  0.128015
  H46      1.0000 0.39280  0.84610  0.45520  Biso   1.000  H  0.128015
  H47      1.0000 0.39280  0.15390  0.95520  Biso   1.000  H  0.128015
  H48      1.0000 0.60720  0.15390  0.54480  Biso   1.000  H  0.128015
  H49      1.0000 0.27660  0.95620  0.09030  Biso   1.000  H  0.118615
  H50      1.0000 0.72340  0.95620  0.40970  Biso   1.000  H  0.118615
  H51      1.0000 0.72340  0.04380  0.90970  Biso   1.000  H  0.118615
  H52      1.0000 0.27660  0.04380  0.59030  Biso   1.000  H  0.118615
  H53      1.0000 0.16630  0.83550  0.03620  Biso   1.000  H  0.086823
  H54      1.0000 0.83370  0.83550  0.46380  Biso   1.000  H  0.086823
  H55      1.0000 0.83370  0.16450  0.96380  Biso   1.000  H  0.086823
  H56      1.0000 0.16630  0.16450  0.53620  Biso   1.000  H  0.086823
  H57      1.0000 0.15930  0.85090  0.60960  Biso   1.000  H  0.138452
  H58      1.0000 0.84070  0.85090  0.89040  Biso   1.000  H  0.138452
  H59      1.0000 0.84070  0.14910  0.39040  Biso   1.000  H  0.138452
  H60      1.0000 0.15930  0.14910  0.10960  Biso   1.000  H  0.138452
  H61      1.0000 0.20040  0.81860  0.54080  Biso   1.000  H  0.141225
  H62      1.0000 0.79960  0.81860  0.95920  Biso   1.000  H  0.141225
  H63      1.0000 0.79960  0.18140  0.45920  Biso   1.000  H  0.141225
  H64      1.0000 0.20040  0.18140  0.04080  Biso   1.000  H  0.141225
  H65      1.0000 0.09790  0.89370  0.43780  Biso   1.000  H  0.116504
  H66      1.0000 0.90210  0.89370  0.06220  Biso   1.000  H  0.116504
  H67      1.0000 0.90210  0.10630  0.56220  Biso   1.000  H  0.116504
  H68      1.0000 0.09790  0.10630  0.93780  Biso   1.000  H  0.116504
  H69      1.0000 0.99000  0.01960  0.38750  Biso   1.000  H  0.117812
  H70      1.0000 0.01000  0.01960  0.11250  Biso   1.000  H  0.117812
  H71      1.0000 0.01000  0.98040  0.61250  Biso   1.000  H  0.117812
  H72      1.0000 0.99000  0.98040  0.88750  Biso   1.000  H  0.117812
  H73      1.0000 0.67350  0.46890  0.70620  Biso   1.000  H  0.174798
  H74      1.0000 0.32650  0.46890  0.79380  Biso   1.000  H  0.174799
  H75      1.0000 0.32650  0.53110  0.29380  Biso   1.000  H  0.174798
  H76      1.0000 0.67350  0.53110  0.20620  Biso   1.000  H  0.174798
  H77      1.0000 0.53870  0.49460  0.66450  Biso   1.000  H  0.173155
  H78      1.0000 0.46130  0.49460  0.83550  Biso   1.000  H  0.173155
  H79      1.0000 0.46130  0.50540  0.33550  Biso   1.000  H  0.173155
  H80      1.0000 0.53870  0.50540  0.16450  Biso   1.000  H  0.173155
  H81      1.0000 0.60100  0.56170  0.72160  Biso   1.000  H  0.174472
  H82      1.0000 0.39900  0.56170  0.77840  Biso   1.000  H  0.174472
  H83      1.0000 0.39900  0.43830  0.27840  Biso   1.000  H  0.174472
  H84      1.0000 0.60100  0.43830  0.22160  Biso   1.000  H  0.174472
  N1       1.0000 0.80295  0.54586  0.47552  Biso   1.000  N  -0.231458
  N2       1.0000 0.19705  0.54586  0.02448  Biso   1.000  N  -0.231458
  N3       1.0000 0.19705  0.45414  0.52448  Biso   1.000  N  -0.231458
  N4       1.0000 0.80295  0.45414  0.97552  Biso   1.000  N  -0.231458
  N5       1.0000 0.31566  0.77201  0.00754  Biso   1.000  N  -0.232029
  N6       1.0000 0.68434  0.77201  0.49246  Biso   1.000  N  -0.232029
  N7       1.0000 0.68434  0.22799  0.99246  Biso   1.000  N  -0.232029
  N8       1.0000 0.31566  0.22799  0.50754  Biso   1.000  N  -0.232029
  O1       1.0000 0.94859  0.76437  0.60039  Biso   1.000  O  -0.569108
  O2       1.0000 0.05141  0.76437  0.89961  Biso   1.000  O  -0.569108
  O3       1.0000 0.05141  0.23563  0.39961  Biso   1.000  O  -0.569108
  O4       1.0000 0.94859  0.23563  0.10039  Biso   1.000  O  -0.569108
  O5       1.0000 0.01022  0.71226  0.50936  Biso   1.000  O  -0.587624
  O6       1.0000 0.98978  0.71226  0.99064  Biso   1.000  O  -0.587624
  O7       1.0000 0.98978  0.28774  0.49064  Biso   1.000  O  -0.587624
  O8       1.0000 0.01022  0.28774  0.00936  Biso   1.000  O  -0.587624
  O9       1.0000 0.62649  0.62531  0.59983  Biso   1.000  O  -0.601708
  O10      1.0000 0.37351  0.62531  0.90017  Biso   1.000  O  -0.601708
  O11      1.0000 0.37351  0.37469  0.40017  Biso   1.000  O  -0.601708
  O12      1.0000 0.62649  0.37469  0.09983  Biso   1.000  O  -0.601708
  O13      1.0000 0.80790  0.55677  0.63749  Biso   1.000  O  -0.597764
  O14      1.0000 0.19210  0.55677  0.86251  Biso   1.000  O  -0.597764
  O15      1.0000 0.19210  0.44323  0.36251  Biso   1.000  O  -0.597764
  O16      1.0000 0.80790  0.44323  0.13749  Biso   1.000  O  -0.597764
