data_image0
_cell_length_a       10.5785
_cell_length_b       14.4939
_cell_length_c       20.5
_cell_angle_alpha    90
_cell_angle_beta     97.355
_cell_angle_gamma    90

_symmetry_space_group_name_H-M    "P 1"
_symmetry_int_tables_number       1

loop_
  _symmetry_equiv_pos_as_xyz
  'x, y, z'

loop_
  _atom_site_label
  _atom_site_occupancy
  _atom_site_fract_x
  _atom_site_fract_y
  _atom_site_fract_z
  _atom_site_thermal_displace_type
  _atom_site_B_iso_or_equiv
  _atom_site_type_symbol
  _atom_site_charge
  C1       1.0000 0.50000  0.83710  0.25000  Biso   1.000  C  -0.003783
  C2       1.0000 0.50000  0.16290  0.75000  Biso   1.000  C  -0.003675
  C3       1.0000 0.61800  0.77824  0.26986  Biso   1.000  C  0.040190
  C4       1.0000 0.38200  0.77824  0.23014  Biso   1.000  C  0.040036
  C5       1.0000 0.38200  0.22176  0.73014  Biso   1.000  C  0.039909
  C6       1.0000 0.61800  0.22176  0.76986  Biso   1.000  C  0.040157
  C7       1.0000 0.63390  0.71117  0.31764  Biso   1.000  C  -0.194481
  C8       1.0000 0.36610  0.71117  0.18236  Biso   1.000  C  -0.194430
  C9       1.0000 0.36610  0.28883  0.68236  Biso   1.000  C  -0.194429
  C10      1.0000 0.63390  0.28883  0.81764  Biso   1.000  C  -0.194497
  C11      1.0000 0.74900  0.66162  0.32728  Biso   1.000  C  0.064882
  C12      1.0000 0.25100  0.66162  0.17272  Biso   1.000  C  0.066320
  C13      1.0000 0.25100  0.33838  0.67272  Biso   1.000  C  0.064520
  C14      1.0000 0.74900  0.33838  0.82728  Biso   1.000  C  0.064763
  C15      1.0000 0.84410  0.68208  0.28758  Biso   1.000  C  -0.120805
  C16      1.0000 0.15590  0.68208  0.21242  Biso   1.000  C  -0.120354
  C17      1.0000 0.15590  0.31792  0.71242  Biso   1.000  C  -0.121558
  C18      1.0000 0.84410  0.31792  0.78758  Biso   1.000  C  -0.120738
  C19      1.0000 0.82740  0.74965  0.23942  Biso   1.000  C  -0.116312
  C20      1.0000 0.17260  0.74965  0.26058  Biso   1.000  C  -0.117140
  C21      1.0000 0.17260  0.25035  0.76058  Biso   1.000  C  -0.117334
  C22      1.0000 0.82740  0.25035  0.73942  Biso   1.000  C  -0.116647
  C23      1.0000 0.71290  0.79761  0.23024  Biso   1.000  C  0.021523
  C24      1.0000 0.28710  0.79761  0.26976  Biso   1.000  C  0.020716
  C25      1.0000 0.28710  0.20239  0.76976  Biso   1.000  C  0.021200
  C26      1.0000 0.71290  0.20239  0.73024  Biso   1.000  C  0.021393
  C27      1.0000 0.66540  0.87047  0.18335  Biso   1.000  C  0.030145
  C28      1.0000 0.33460  0.87047  0.31665  Biso   1.000  C  0.030308
  C29      1.0000 0.33460  0.12953  0.81665  Biso   1.000  C  0.029374
  C30      1.0000 0.66540  0.12953  0.68335  Biso   1.000  C  0.030006
  C31      1.0000 0.72060  0.91560  0.13387  Biso   1.000  C  -0.117135
  C32      1.0000 0.27940  0.91560  0.36613  Biso   1.000  C  -0.118006
  C33      1.0000 0.27940  0.08440  0.86613  Biso   1.000  C  -0.117061
  C34      1.0000 0.72060  0.08440  0.63387  Biso   1.000  C  -0.117480
  C35      1.0000 0.65240  0.98440  0.09851  Biso   1.000  C  -0.139449
  C36      1.0000 0.34760  0.98440  0.40149  Biso   1.000  C  -0.139451
  C37      1.0000 0.34760  0.01560  0.90149  Biso   1.000  C  -0.139538
  C38      1.0000 0.65240  0.01560  0.59851  Biso   1.000  C  -0.139330
  C39      1.0000 0.52890  0.00947  0.11019  Biso   1.000  C  0.060279
  C40      1.0000 0.47110  0.00947  0.38981  Biso   1.000  C  0.060298
  C41      1.0000 0.47110  0.99053  0.88981  Biso   1.000  C  0.060265
  C42      1.0000 0.52890  0.99053  0.61019  Biso   1.000  C  0.060302
  C43      1.0000 0.47350  0.96274  0.15954  Biso   1.000  C  -0.193920
  C44      1.0000 0.52650  0.96274  0.34046  Biso   1.000  C  -0.193844
  C45      1.0000 0.52650  0.03726  0.84046  Biso   1.000  C  -0.193667
  C46      1.0000 0.47350  0.03726  0.65954  Biso   1.000  C  -0.193666
  C47      1.0000 0.54150  0.89407  0.19462  Biso   1.000  C  0.046377
  C48      1.0000 0.45850  0.89407  0.30538  Biso   1.000  C  0.046280
  C49      1.0000 0.45850  0.10593  0.80538  Biso   1.000  C  0.046048
  C50      1.0000 0.54150  0.10593  0.69462  Biso   1.000  C  0.046270
  C51      1.0000 0.70870  0.51330  0.47280  Biso   1.000  C  0.088880
  C52      1.0000 0.29130  0.51330  0.02720  Biso   1.000  C  0.088876
  C53      1.0000 0.29130  0.48670  0.52720  Biso   1.000  C  0.088857
  C54      1.0000 0.70870  0.48670  0.97280  Biso   1.000  C  0.089874
  C55      1.0000 0.68870  0.58160  0.42610  Biso   1.000  C  -0.183531
  C56      1.0000 0.31130  0.58160  0.07390  Biso   1.000  C  -0.182984
  C57      1.0000 0.31130  0.41840  0.57390  Biso   1.000  C  -0.183547
  C58      1.0000 0.68870  0.41840  0.92610  Biso   1.000  C  -0.183657
  C59      1.0000 0.76730  0.58920  0.37815  Biso   1.000  C  0.123823
  C60      1.0000 0.23270  0.58920  0.12185  Biso   1.000  C  0.123326
  C61      1.0000 0.23270  0.41080  0.62185  Biso   1.000  C  0.123189
  C62      1.0000 0.76730  0.41080  0.87815  Biso   1.000  C  0.124144
  C63      1.0000 0.86700  0.52800  0.38310  Biso   1.000  C  -0.173354
  C64      1.0000 0.13300  0.52800  0.11690  Biso   1.000  C  -0.172965
  C65      1.0000 0.13300  0.47200  0.61690  Biso   1.000  C  -0.173702
  C66      1.0000 0.86700  0.47200  0.88310  Biso   1.000  C  -0.174509
  C67      1.0000 0.88010  0.46170  0.43140  Biso   1.000  C  0.099964
  C68      1.0000 0.11990  0.46170  0.06860  Biso   1.000  C  0.098389
  C69      1.0000 0.11990  0.53830  0.56860  Biso   1.000  C  0.100268
  C70      1.0000 0.88010  0.53830  0.93140  Biso   1.000  C  0.099687
  C71      1.0000 0.44350  0.22260  0.00770  Biso   1.000  C  0.095128
  C72      1.0000 0.55650  0.22260  0.49230  Biso   1.000  C  0.095282
  C73      1.0000 0.55650  0.77740  0.99230  Biso   1.000  C  0.095586
  C74      1.0000 0.44350  0.77740  0.50770  Biso   1.000  C  0.095252
  C75      1.0000 0.51630  0.15440  0.04130  Biso   1.000  C  -0.184425
  C76      1.0000 0.48370  0.15440  0.45870  Biso   1.000  C  -0.184581
  C77      1.0000 0.48370  0.84560  0.95870  Biso   1.000  C  -0.184841
  C78      1.0000 0.51630  0.84560  0.54130  Biso   1.000  C  -0.184544
  C79      1.0000 0.45740  0.08410  0.07256  Biso   1.000  C  0.122327
  C80      1.0000 0.54260  0.08410  0.42744  Biso   1.000  C  0.122315
  C81      1.0000 0.54260  0.91590  0.92744  Biso   1.000  C  0.121492
  C82      1.0000 0.45740  0.91590  0.57256  Biso   1.000  C  0.122415
  C83      1.0000 0.32440  0.08840  0.06784  Biso   1.000  C  -0.189305
  C84      1.0000 0.67560  0.08840  0.43216  Biso   1.000  C  -0.189402
  C85      1.0000 0.67560  0.91160  0.93216  Biso   1.000  C  -0.189477
  C86      1.0000 0.32440  0.91160  0.56784  Biso   1.000  C  -0.189296
  C87      1.0000 0.25950  0.15970  0.03411  Biso   1.000  C  0.095531
  C88      1.0000 0.74050  0.15970  0.46589  Biso   1.000  C  0.095182
  C89      1.0000 0.74050  0.84030  0.96589  Biso   1.000  C  0.096376
  C90      1.0000 0.25950  0.84030  0.53411  Biso   1.000  C  0.095280
  C91      1.0000 0.02310  0.23426  0.55863  Biso   1.000  C  0.629337
  C92      1.0000 0.97690  0.23426  0.94137  Biso   1.000  C  0.629610
  C93      1.0000 0.97690  0.76574  0.44137  Biso   1.000  C  0.629535
  C94      1.0000 0.02310  0.76574  0.05863  Biso   1.000  C  0.630959
  C95      1.0000 0.12620  0.16100  0.56399  Biso   1.000  C  -0.396889
  C96      1.0000 0.87380  0.16100  0.93601  Biso   1.000  C  -0.396669
  C97      1.0000 0.87380  0.83900  0.43601  Biso   1.000  C  -0.396983
  C98      1.0000 0.12620  0.83900  0.06399  Biso   1.000  C  -0.395133
  C99      1.0000 0.06570  0.07538  0.53103  Biso   1.000  C  0.141761
  C100     1.0000 0.93430  0.07538  0.96897  Biso   1.000  C  0.140747
  C101     1.0000 0.93430  0.92462  0.46897  Biso   1.000  C  0.141835
  C102     1.0000 0.06570  0.92462  0.03103  Biso   1.000  C  0.140900
  C103     1.0000 0.05650  0.06450  0.46352  Biso   1.000  C  -0.153863
  C104     1.0000 0.94350  0.06450  0.03648  Biso   1.000  C  -0.154740
  C105     1.0000 0.94350  0.93550  0.53648  Biso   1.000  C  -0.153777
  C106     1.0000 0.05650  0.93550  0.96352  Biso   1.000  C  -0.152610
  C107     1.0000 0.99240  0.98980  0.43263  Biso   1.000  C  -0.154696
  C108     1.0000 0.00760  0.98980  0.06737  Biso   1.000  C  -0.154910
  C109     1.0000 0.00760  0.01020  0.56737  Biso   1.000  C  -0.154628
  C110     1.0000 0.99240  0.01020  0.93263  Biso   1.000  C  -0.154372
  C111     1.0000 0.69760  0.42460  0.64390  Biso   1.000  C  0.450029
  C112     1.0000 0.30240  0.42460  0.85610  Biso   1.000  C  0.451066
  C113     1.0000 0.30240  0.57540  0.35610  Biso   1.000  C  0.450571
  C114     1.0000 0.69760  0.57540  0.14390  Biso   1.000  C  0.449947
  Cd1      1.0000 0.80905  0.33828  0.55194  Biso   1.000  Cd  0.799109
  Cd2      1.0000 0.19095  0.33828  0.94806  Biso   1.000  Cd  0.801048
  Cd3      1.0000 0.19095  0.66172  0.44806  Biso   1.000  Cd  0.799542
  Cd4      1.0000 0.80905  0.66172  0.05194  Biso   1.000  Cd  0.799090
  H1       1.0000 0.56800  0.69850  0.34380  Biso   1.000  H  0.125877
  H2       1.0000 0.43200  0.69850  0.15620  Biso   1.000  H  0.126200
  H3       1.0000 0.43200  0.30150  0.65620  Biso   1.000  H  0.126003
  H4       1.0000 0.56800  0.30150  0.84380  Biso   1.000  H  0.125725
  H5       1.0000 0.92200  0.64870  0.29390  Biso   1.000  H  0.122027
  H6       1.0000 0.07800  0.64870  0.20610  Biso   1.000  H  0.122122
  H7       1.0000 0.07800  0.35130  0.70610  Biso   1.000  H  0.122040
  H8       1.0000 0.92200  0.35130  0.79390  Biso   1.000  H  0.121704
  H9       1.0000 0.89300  0.76290  0.21320  Biso   1.000  H  0.124057
  H10      1.0000 0.10700  0.76290  0.28680  Biso   1.000  H  0.123514
  H11      1.0000 0.10700  0.23710  0.78680  Biso   1.000  H  0.123739
  H12      1.0000 0.89300  0.23710  0.71320  Biso   1.000  H  0.123717
  H13      1.0000 0.80350  0.89930  0.12470  Biso   1.000  H  0.117720
  H14      1.0000 0.19650  0.89930  0.37530  Biso   1.000  H  0.117360
  H15      1.0000 0.19650  0.10070  0.87530  Biso   1.000  H  0.117447
  H16      1.0000 0.80350  0.10070  0.62470  Biso   1.000  H  0.117393
  H17      1.0000 0.69020  0.01580  0.06520  Biso   1.000  H  0.106394
  H18      1.0000 0.30980  0.01580  0.43480  Biso   1.000  H  0.106284
  H19      1.0000 0.30980  0.98420  0.93480  Biso   1.000  H  0.105701
  H20      1.0000 0.69020  0.98420  0.56520  Biso   1.000  H  0.106404
  H21      1.0000 0.39030  0.97840  0.16850  Biso   1.000  H  0.126239
  H22      1.0000 0.60970  0.97840  0.33150  Biso   1.000  H  0.126198
  H23      1.0000 0.60970  0.02160  0.83150  Biso   1.000  H  0.126343
  H24      1.0000 0.39030  0.02160  0.66850  Biso   1.000  H  0.126253
  H25      1.0000 0.65300  0.51080  0.50560  Biso   1.000  H  0.084314
  H26      1.0000 0.34700  0.51080  0.99440  Biso   1.000  H  0.083793
  H27      1.0000 0.34700  0.48920  0.49440  Biso   1.000  H  0.084405
  H28      1.0000 0.65300  0.48920  0.00560  Biso   1.000  H  0.084904
  H29      1.0000 0.62010  0.62370  0.42710  Biso   1.000  H  0.119402
  H30      1.0000 0.37990  0.62370  0.07290  Biso   1.000  H  0.119302
  H31      1.0000 0.37990  0.37630  0.57290  Biso   1.000  H  0.119447
  H32      1.0000 0.62010  0.37630  0.92710  Biso   1.000  H  0.119413
  H33      1.0000 0.92770  0.53140  0.35280  Biso   1.000  H  0.130425
  H34      1.0000 0.07230  0.53140  0.14720  Biso   1.000  H  0.130042
  H35      1.0000 0.07230  0.46860  0.64720  Biso   1.000  H  0.130696
  H36      1.0000 0.92770  0.46860  0.85280  Biso   1.000  H  0.129840
  H37      1.0000 0.95100  0.42110  0.43350  Biso   1.000  H  0.099208
  H38      1.0000 0.04900  0.42110  0.06650  Biso   1.000  H  0.098868
  H39      1.0000 0.04900  0.57890  0.56650  Biso   1.000  H  0.099021
  H40      1.0000 0.95100  0.57890  0.93350  Biso   1.000  H  0.101868
  H41      1.0000 0.48600  0.26910  0.98610  Biso   1.000  H  0.095663
  H42      1.0000 0.51400  0.26910  0.51390  Biso   1.000  H  0.095814
  H43      1.0000 0.51400  0.73090  0.01390  Biso   1.000  H  0.095874
  H44      1.0000 0.48600  0.73090  0.48610  Biso   1.000  H  0.095801
  H45      1.0000 0.60650  0.15540  0.04310  Biso   1.000  H  0.118688
  H46      1.0000 0.39350  0.15540  0.45690  Biso   1.000  H  0.118523
  H47      1.0000 0.39350  0.84460  0.95690  Biso   1.000  H  0.124398
  H48      1.0000 0.60650  0.84460  0.54310  Biso   1.000  H  0.118921
  H49      1.0000 0.27890  0.04210  0.08790  Biso   1.000  H  0.120783
  H50      1.0000 0.72110  0.04210  0.41210  Biso   1.000  H  0.120727
  H51      1.0000 0.72110  0.95790  0.91210  Biso   1.000  H  0.120827
  H52      1.0000 0.27890  0.95790  0.58790  Biso   1.000  H  0.120760
  H53      1.0000 0.16930  0.16140  0.03220  Biso   1.000  H  0.083866
  H54      1.0000 0.83070  0.16140  0.46780  Biso   1.000  H  0.083732
  H55      1.0000 0.83070  0.83860  0.96780  Biso   1.000  H  0.084667
  H56      1.0000 0.16930  0.83860  0.53220  Biso   1.000  H  0.083764
  H57      1.0000 0.19890  0.18150  0.54160  Biso   1.000  H  0.140718
  H58      1.0000 0.80110  0.18150  0.95840  Biso   1.000  H  0.140573
  H59      1.0000 0.80110  0.81850  0.45840  Biso   1.000  H  0.140309
  H60      1.0000 0.19890  0.81850  0.04160  Biso   1.000  H  0.143136
  H61      1.0000 0.15760  0.14820  0.61070  Biso   1.000  H  0.142588
  H62      1.0000 0.84240  0.14820  0.88930  Biso   1.000  H  0.142520
  H63      1.0000 0.84240  0.85180  0.38930  Biso   1.000  H  0.142617
  H64      1.0000 0.15760  0.85180  0.11070  Biso   1.000  H  0.141619
  H65      1.0000 0.09460  0.10890  0.43800  Biso   1.000  H  0.118214
  H66      1.0000 0.90540  0.10890  0.06200  Biso   1.000  H  0.118019
  H67      1.0000 0.90540  0.89110  0.56200  Biso   1.000  H  0.117741
  H68      1.0000 0.09460  0.89110  0.93800  Biso   1.000  H  0.117559
  H69      1.0000 0.98800  0.98290  0.38630  Biso   1.000  H  0.121422
  H70      1.0000 0.01200  0.98290  0.11370  Biso   1.000  H  0.121112
  H71      1.0000 0.01200  0.01710  0.61370  Biso   1.000  H  0.121424
  H72      1.0000 0.98800  0.01710  0.88630  Biso   1.000  H  0.121323
  H73      1.0000 0.66010  0.45190  0.67890  Biso   1.000  H  0.043964
  H74      1.0000 0.33990  0.45190  0.82110  Biso   1.000  H  0.045001
  H75      1.0000 0.33990  0.54810  0.32110  Biso   1.000  H  0.044309
  H76      1.0000 0.66010  0.54810  0.17890  Biso   1.000  H  0.043870
  N1       1.0000 0.79920  0.45125  0.47519  Biso   1.000  N  -0.226768
  N2       1.0000 0.20080  0.45125  0.02481  Biso   1.000  N  -0.228060
  N3       1.0000 0.20080  0.54875  0.52481  Biso   1.000  N  -0.227237
  N4       1.0000 0.79920  0.54875  0.97519  Biso   1.000  N  -0.225956
  N5       1.0000 0.31670  0.22669  0.00388  Biso   1.000  N  -0.236737
  N6       1.0000 0.68330  0.22669  0.49612  Biso   1.000  N  -0.236436
  N7       1.0000 0.68330  0.77331  0.99612  Biso   1.000  N  -0.235982
  N8       1.0000 0.31670  0.77331  0.50388  Biso   1.000  N  -0.236518
  O1       1.0000 0.94681  0.23366  0.60155  Biso   1.000  O  -0.541003
  O2       1.0000 0.05319  0.23366  0.89845  Biso   1.000  O  -0.541249
  O3       1.0000 0.05319  0.76634  0.39845  Biso   1.000  O  -0.540416
  O4       1.0000 0.94681  0.76634  0.10155  Biso   1.000  O  -0.548556
  O5       1.0000 0.00940  0.28813  0.51053  Biso   1.000  O  -0.510069
  O6       1.0000 0.99060  0.28813  0.98947  Biso   1.000  O  -0.510384
  O7       1.0000 0.99060  0.71187  0.48947  Biso   1.000  O  -0.509303
  O8       1.0000 0.00940  0.71187  0.01053  Biso   1.000  O  -0.519349
  O9       1.0000 0.81550  0.44160  0.63990  Biso   1.000  O  -0.481642
  O10      1.0000 0.18450  0.44160  0.86010  Biso   1.000  O  -0.483415
  O11      1.0000 0.18450  0.55840  0.36010  Biso   1.000  O  -0.483736
  O12      1.0000 0.81550  0.55840  0.13990  Biso   1.000  O  -0.483043
  O13      1.0000 0.63000  0.37480  0.60462  Biso   1.000  O  -0.506458
  O14      1.0000 0.37000  0.37480  0.89538  Biso   1.000  O  -0.500712
  O15      1.0000 0.37000  0.62520  0.39538  Biso   1.000  O  -0.505390
  O16      1.0000 0.63000  0.62520  0.10462  Biso   1.000  O  -0.504400
  O17      1.0000 0.18400  0.27390  0.41630  Biso   1.000  O  -0.111347
  O18      1.0000 0.81600  0.27390  0.08370  Biso   1.000  O  -0.110350
  O19      1.0000 0.81600  0.72610  0.58370  Biso   1.000  O  -0.108690
  O20      1.0000 0.18400  0.72610  0.91630  Biso   1.000  O  -0.144140
  O21      1.0000 0.91170  0.60240  0.69690  Biso   1.000  O  -0.128052
  O22      1.0000 0.08830  0.60240  0.80310  Biso   1.000  O  -0.081071
  O23      1.0000 0.08830  0.39760  0.30310  Biso   1.000  O  -0.110056
  O24      1.0000 0.91170  0.39760  0.19690  Biso   1.000  O  -0.111698
