
##########################################################################
#               Crystallographic Information Format file
#               Produced by PyCifRW module
#
#  This is a CIF file.  CIF has been adopted by the International
#  Union of Crystallography as the standard for data archiving and
#  transmission.
#
#  For information on this file format, follow the CIF links at
#  http://www.iucr.org
##########################################################################

data_image0

_cell_length_a                          7.5417
_cell_length_b                          17.885
_cell_length_c                          23.764
_cell_angle_alpha                       92.498
_cell_angle_beta                        90
_cell_angle_gamma                       90
_symmetry_space_group_name_H-M          'P 1'
_symmetry_int_tables_number             1
loop_
  _symmetry_equiv_pos_as_xyz
         'x, y, z' 
loop_
  _atom_site_label
  _atom_site_occupancy
  _atom_site_fract_x
  _atom_site_fract_y
  _atom_site_fract_z
  _atom_site_thermal_displace_type
  _atom_site_B_iso_or_equiv
  _atom_site_type_symbol
  _atom_site_charge
         C1        1.0000    0.30060   0.87672   0.14248   Biso      1.000     C          -0.025876           
         C2        1.0000    0.72740   0.52056   0.91506   Biso      1.000     C          0.690739  
         C3        1.0000    0.65970   0.36887   0.69881   Biso      1.000     C          -0.084533           
         C4        1.0000    0.28080   0.69604   0.91438   Biso      1.000     C          -0.08204  
         C5        1.0000    0.16250   0.19337   0.71732   Biso      1.000     C          0.682782  
         C6        1.0000    0.96920   0.30710   0.65459   Biso      1.000     C          -0.138506           
         C7        1.0000    0.87100   0.51174   0.79980   Biso      1.000     C          -0.152686           
         C8        1.0000    0.46250   0.47534   0.85950   Biso      1.000     C          0.687364  
         C9        1.0000    0.94860   0.51386   0.74709   Biso      1.000     C          -0.083363           
         C10       1.0000    0.62220   0.67943   0.87394   Biso      1.000     C          -0.141291           
         C11       1.0000    0.85790   0.54294   0.70249   Biso      1.000     C          -0.029558           
         C12       1.0000    0.70100   0.54040   0.80862   Biso      1.000     C          0.096235  
         C13       1.0000    0.51870   0.61610   0.88101   Biso      1.000     C          0.098915  
         C14       1.0000    0.60300   0.53896   0.86576   Biso      1.000     C          -0.302294           
         C15       1.0000    0.94510   0.54279   0.64576   Biso      1.000     C          0.598098  
         C16       1.0000    0.85680   0.34659   0.62105   Biso      1.000     C          -0.087275           
         C17       1.0000    0.69940   0.37672   0.64248   Biso      1.000     C          -0.025875           
         C18       1.0000    0.92560   0.29585   0.71052   Biso      1.000     C          0.097421  
         C19       1.0000    0.61080   0.57020   0.76327   Biso      1.000     C          -0.138073           
         C20       1.0000    0.30860   0.83591   0.91949   Biso      1.000     C          0.615909  
         C21       1.0000    0.38410   0.74080   0.59310   Biso      1.000     C          -0.032113           
         C22       1.0000    0.34740   0.87493   0.59784   Biso      1.000     C          -0.147532           
         C23       1.0000    0.55660   0.74986   0.61305   Biso      1.000     C          -0.090572           
         C24       1.0000    0.68750   0.92898   0.78935   Biso      1.000     C          -0.084027           
         C25       1.0000    0.57440   0.08264   0.89454   Biso      1.000     C          0.550959  
         C26       1.0000    0.85680   0.15341   0.87895   Biso      1.000     C          -0.087276           
         C27       1.0000    0.72740   0.97944   0.58494   Biso      1.000     C          0.690739  
         C28       1.0000    0.65970   0.13113   0.80119   Biso      1.000     C          -0.084533           
         C29       1.0000    0.28080   0.80396   0.58562   Biso      1.000     C          -0.082039           
         C30       1.0000    0.16250   0.30663   0.78268   Biso      1.000     C          0.682782  
         C31       1.0000    0.96920   0.19290   0.84541   Biso      1.000     C          -0.138506           
         C32       1.0000    0.77150   0.32885   0.73260   Biso      1.000     C          -0.134907           
         C33       1.0000    0.87100   0.98826   0.70020   Biso      1.000     C          -0.152686           
         C34       1.0000    0.57440   0.41736   0.60546   Biso      1.000     C          0.550961  
         C35       1.0000    0.55660   0.75014   0.88695   Biso      1.000     C          -0.090569           
         C36       1.0000    0.07440   0.70415   0.28948   Biso      1.000     C          0.09742   
         C37       1.0000    0.38920   0.42980   0.23673   Biso      1.000     C          -0.138073           
         C38       1.0000    0.69140   0.16409   0.08051   Biso      1.000     C          0.615909  
         C39       1.0000    0.61590   0.25920   0.40690   Biso      1.000     C          -0.032113           
         C40       1.0000    0.65260   0.12507   0.40216   Biso      1.000     C          -0.147532           
         C41       1.0000    0.44340   0.25014   0.38695   Biso      1.000     C          -0.090572           
         C42       1.0000    0.31250   0.07102   0.21065   Biso      1.000     C          -0.084027           
         C43       1.0000    0.42560   0.91736   0.10546   Biso      1.000     C          0.550957  
         C44       1.0000    0.14320   0.84659   0.12105   Biso      1.000     C          -0.087276           
         C45       1.0000    0.27260   0.02056   0.41506   Biso      1.000     C          0.690738  
         C46       1.0000    0.34030   0.86887   0.19881   Biso      1.000     C          -0.084532           
         C47       1.0000    0.71920   0.19604   0.41438   Biso      1.000     C          -0.082039           
         C48       1.0000    0.83750   0.69337   0.21732   Biso      1.000     C          0.682782  
         C49       1.0000    0.03080   0.80710   0.15459   Biso      1.000     C          -0.138506           
         C50       1.0000    0.68750   0.57102   0.71065   Biso      1.000     C          -0.084021           
         C51       1.0000    0.12900   0.01174   0.29980   Biso      1.000     C          -0.152686           
         C52       1.0000    0.05140   0.01386   0.24709   Biso      1.000     C          -0.083363           
         C53       1.0000    0.37780   0.17943   0.37394   Biso      1.000     C          -0.141288           
         C54       1.0000    0.14210   0.04294   0.20249   Biso      1.000     C          -0.029558           
         C55       1.0000    0.29900   0.04040   0.30862   Biso      1.000     C          0.096235  
         C56       1.0000    0.48130   0.11610   0.38101   Biso      1.000     C          0.098915  
         C57       1.0000    0.39700   0.03896   0.36576   Biso      1.000     C          -0.302294           
         C58       1.0000    0.05490   0.04279   0.14576   Biso      1.000     C          0.598098  
         C59       1.0000    0.05490   0.45721   0.35424   Biso      1.000     C          0.598098  
         C60       1.0000    0.22850   0.82885   0.23260   Biso      1.000     C          -0.134907           
         C61       1.0000    0.07440   0.79585   0.21052   Biso      1.000     C          0.097421  
         C62       1.0000    0.38920   0.07020   0.26327   Biso      1.000     C          -0.138068           
         C63       1.0000    0.69140   0.33591   0.41949   Biso      1.000     C          0.615908  
         C64       1.0000    0.38410   0.75920   0.90690   Biso      1.000     C          -0.032114           
         C65       1.0000    0.34740   0.62507   0.90216   Biso      1.000     C          -0.147531           
         C66       1.0000    0.53750   0.97534   0.35950   Biso      1.000     C          0.687364  
         C67       1.0000    0.46250   0.02466   0.64050   Biso      1.000     C          0.687364  
         C68       1.0000    0.94860   0.98614   0.75291   Biso      1.000     C          -0.083363           
         C69       1.0000    0.62220   0.82057   0.62606   Biso      1.000     C          -0.141288           
         C70       1.0000    0.03080   0.69290   0.34541   Biso      1.000     C          -0.138505           
         C71       1.0000    0.83750   0.80663   0.28268   Biso      1.000     C          0.682782  
         C72       1.0000    0.71920   0.30396   0.08562   Biso      1.000     C          -0.082041           
         C73       1.0000    0.34030   0.63113   0.30119   Biso      1.000     C          -0.084532           
         C74       1.0000    0.27260   0.47944   0.08494   Biso      1.000     C          0.690739  
         C75       1.0000    0.14320   0.65341   0.37895   Biso      1.000     C          -0.087276           
         C76       1.0000    0.12900   0.48826   0.20020   Biso      1.000     C          -0.152686           
         C77       1.0000    0.42560   0.58264   0.39454   Biso      1.000     C          0.550958  
         C78       1.0000    0.44340   0.24986   0.11305   Biso      1.000     C          -0.090571           
         C79       1.0000    0.65260   0.37493   0.09784   Biso      1.000     C          -0.147531           
         C80       1.0000    0.61590   0.24080   0.09310   Biso      1.000     C          -0.032114           
         C81       1.0000    0.04170   0.25000   0.75000   Biso      1.000     C          -0.299177           
         C82       1.0000    0.95830   0.75000   0.25000   Biso      1.000     C          -0.299177           
         C83       1.0000    0.22850   0.67115   0.26740   Biso      1.000     C          -0.134906           
         C84       1.0000    0.31250   0.42898   0.28935   Biso      1.000     C          -0.084022           
         C85       1.0000    0.53750   0.52466   0.14050   Biso      1.000     C          0.687364  
         C86       1.0000    0.30060   0.62328   0.35752   Biso      1.000     C          -0.025874           
         C87       1.0000    0.37780   0.32057   0.12606   Biso      1.000     C          -0.141288           
         C88       1.0000    0.05140   0.48614   0.25291   Biso      1.000     C          -0.083363           
         C89       1.0000    0.70100   0.95960   0.69138   Biso      1.000     C          0.096235  
         C90       1.0000    0.51870   0.88390   0.61899   Biso      1.000     C          0.098915  
         C91       1.0000    0.60300   0.96104   0.63424   Biso      1.000     C          -0.302294           
         C92       1.0000    0.94510   0.95721   0.85424   Biso      1.000     C          0.598098  
         C93       1.0000    0.69940   0.12328   0.85752   Biso      1.000     C          -0.025874           
         C94       1.0000    0.77150   0.17115   0.76740   Biso      1.000     C          -0.134907           
         C95       1.0000    0.85790   0.95706   0.79751   Biso      1.000     C          -0.029557           
         C96       1.0000    0.61080   0.92980   0.73673   Biso      1.000     C          -0.138068           
         C97       1.0000    0.30860   0.66409   0.58051   Biso      1.000     C          0.615908  
         C98       1.0000    0.39700   0.46104   0.13424   Biso      1.000     C          -0.302294           
         C99       1.0000    0.48130   0.38390   0.11899   Biso      1.000     C          0.098915  
         C100      1.0000    0.29900   0.45960   0.19138   Biso      1.000     C          0.096235  
         C101      1.0000    0.14210   0.45706   0.29751   Biso      1.000     C          -0.029558           
         C102      1.0000    0.92560   0.20415   0.78948   Biso      1.000     C          0.097421  
         F1        1.0000    0.13030   0.06505   0.41724   Biso      1.000     F          -0.195877           
         F2        1.0000    0.21240   0.94981   0.41211   Biso      1.000     F          -0.208828           
         F3        1.0000    0.93040   0.65234   0.17914   Biso      1.000     F          -0.195487           
         F4        1.0000    0.46530   0.91181   0.33832   Biso      1.000     F          -0.202998           
         F5        1.0000    0.66920   0.99310   0.32519   Biso      1.000     F          -0.190508           
         F6        1.0000    0.35430   0.02985   0.46484   Biso      1.000     F          -0.204881           
         F7        1.0000    0.70460   0.77480   0.31036   Biso      1.000     F          -0.204929           
         F8        1.0000    0.76240   0.85488   0.24843   Biso      1.000     F          -0.198123           
         F9        1.0000    0.13030   0.43495   0.08276   Biso      1.000     F          -0.195877           
         F10       1.0000    0.21240   0.55019   0.08789   Biso      1.000     F          -0.208828           
         F11       1.0000    0.93040   0.84766   0.32086   Biso      1.000     F          -0.195487           
         F12       1.0000    0.46530   0.58819   0.16168   Biso      1.000     F          -0.202998           
         F13       1.0000    0.70460   0.72520   0.18964   Biso      1.000     F          -0.204929           
         F14       1.0000    0.66920   0.50690   0.17481   Biso      1.000     F          -0.190508           
         F15       1.0000    0.61190   0.95879   0.40879   Biso      1.000     F          -0.209131           
         F16       1.0000    0.76240   0.64512   0.25157   Biso      1.000     F          -0.198123           
         F17       1.0000    0.29540   0.22520   0.68964   Biso      1.000     F          -0.204929           
         F18       1.0000    0.64570   0.52985   0.96484   Biso      1.000     F          -0.204881           
         F19       1.0000    0.23760   0.35488   0.74843   Biso      1.000     F          -0.198123           
         F20       1.0000    0.86970   0.93495   0.58276   Biso      1.000     F          -0.195877           
         F21       1.0000    0.78760   0.05019   0.58789   Biso      1.000     F          -0.208828           
         F22       1.0000    0.06960   0.34766   0.82086   Biso      1.000     F          -0.195487           
         F23       1.0000    0.53470   0.08819   0.66168   Biso      1.000     F          -0.202998           
         F24       1.0000    0.33080   0.00690   0.67481   Biso      1.000     F          -0.190508           
         F25       1.0000    0.38810   0.45879   0.90879   Biso      1.000     F          -0.209132           
         F26       1.0000    0.64570   0.97015   0.53516   Biso      1.000     F          -0.204882           
         F27       1.0000    0.23760   0.14512   0.75157   Biso      1.000     F          -0.198123           
         F28       1.0000    0.86970   0.56505   0.91724   Biso      1.000     F          -0.195878           
         F29       1.0000    0.78760   0.44981   0.91211   Biso      1.000     F          -0.208828           
         F30       1.0000    0.06960   0.15234   0.67914   Biso      1.000     F          -0.195487           
         F31       1.0000    0.53470   0.41181   0.83832   Biso      1.000     F          -0.202998           
         F32       1.0000    0.33080   0.49310   0.82519   Biso      1.000     F          -0.190508           
         F33       1.0000    0.38810   0.04121   0.59121   Biso      1.000     F          -0.209132           
         F34       1.0000    0.29540   0.27480   0.81036   Biso      1.000     F          -0.204928           
         F35       1.0000    0.61190   0.54121   0.09121   Biso      1.000     F          -0.209132           
         F36       1.0000    0.35430   0.47015   0.03516   Biso      1.000     F          -0.204882           
         H1        1.0000    0.72380   0.41760   0.09180   Biso      1.000     H          0.115171  
         H2        1.0000    0.07700   0.21250   0.86050   Biso      1.000     H          0.116783  
         H3        1.0000    0.16300   0.79830   0.57190   Biso      1.000     H          0.119015  
         H4        1.0000    0.55510   0.10890   0.78560   Biso      1.000     H          0.115983  
         H5        1.0000    0.88720   0.14670   0.91720   Biso      1.000     H          0.106157  
         H6        1.0000    0.62420   0.90930   0.81990   Biso      1.000     H          0.121922  
         H7        1.0000    0.62940   0.70720   0.61770   Biso      1.000     H          0.1212    
         H8        1.0000    0.27620   0.91760   0.59180   Biso      1.000     H          0.115171  
         H9        1.0000    0.49500   0.59010   0.76880   Biso      1.000     H          0.121229  
         H10       1.0000    0.74300   0.32380   0.77120   Biso      1.000     H          0.119604  
         H11       1.0000    0.73970   0.67390   0.85990   Biso      1.000     H          0.118335  
         H12       1.0000    0.06540   0.49510   0.74150   Biso      1.000     H          0.119731  
         H13       1.0000    0.93370   0.49070   0.83000   Biso      1.000     H          0.109717  
         H14       1.0000    0.07700   0.28750   0.63950   Biso      1.000     H          0.116783  
         H15       1.0000    0.16300   0.70170   0.92810   Biso      1.000     H          0.119015  
         H16       1.0000    0.55510   0.39110   0.71440   Biso      1.000     H          0.115983  
         H17       1.0000    0.88720   0.35330   0.58280   Biso      1.000     H          0.106156  
         H18       1.0000    0.62420   0.59070   0.68010   Biso      1.000     H          0.121922  
         H19       1.0000    0.62940   0.79280   0.88230   Biso      1.000     H          0.121199  
         H20       1.0000    0.27620   0.58240   0.90820   Biso      1.000     H          0.115171  
         H21       1.0000    0.50500   0.09010   0.26880   Biso      1.000     H          0.121229  
         H22       1.0000    0.93370   0.00930   0.67000   Biso      1.000     H          0.109717  
         H23       1.0000    0.25700   0.82380   0.27120   Biso      1.000     H          0.119604  
         H24       1.0000    0.06540   0.00490   0.75850   Biso      1.000     H          0.119731  
         H25       1.0000    0.74300   0.17620   0.72880   Biso      1.000     H          0.119604  
         H26       1.0000    0.37060   0.20720   0.11770   Biso      1.000     H          0.1212    
         H27       1.0000    0.37580   0.40930   0.31990   Biso      1.000     H          0.121922  
         H28       1.0000    0.11280   0.64670   0.41720   Biso      1.000     H          0.106156  
         H29       1.0000    0.44490   0.60890   0.28560   Biso      1.000     H          0.115983  
         H30       1.0000    0.83700   0.29830   0.07190   Biso      1.000     H          0.119015  
         H31       1.0000    0.92300   0.71250   0.36050   Biso      1.000     H          0.116783  
         H32       1.0000    0.06630   0.50930   0.17000   Biso      1.000     H          0.109717  
         H33       1.0000    0.93460   0.50490   0.25850   Biso      1.000     H          0.119731  
         H34       1.0000    0.26030   0.32610   0.14010   Biso      1.000     H          0.118334  
         H35       1.0000    0.25700   0.67620   0.22880   Biso      1.000     H          0.119604  
         H36       1.0000    0.50500   0.40990   0.23120   Biso      1.000     H          0.121229  
         H37       1.0000    0.72380   0.08240   0.40820   Biso      1.000     H          0.115171  
         H38       1.0000    0.37060   0.29280   0.38230   Biso      1.000     H          0.1212    
         H39       1.0000    0.37580   0.09070   0.18010   Biso      1.000     H          0.121922  
         H40       1.0000    0.11280   0.85330   0.08280   Biso      1.000     H          0.106157  
         H41       1.0000    0.44490   0.89110   0.21440   Biso      1.000     H          0.115983  
         H42       1.0000    0.83700   0.20170   0.42810   Biso      1.000     H          0.119015  
         H43       1.0000    0.92300   0.78750   0.13950   Biso      1.000     H          0.116783  
         H44       1.0000    0.06630   0.99070   0.33000   Biso      1.000     H          0.109717  
         H45       1.0000    0.93460   0.99510   0.24150   Biso      1.000     H          0.119731  
         H46       1.0000    0.49500   0.90990   0.73120   Biso      1.000     H          0.121229  
         H47       1.0000    0.73970   0.82610   0.64010   Biso      1.000     H          0.118334  
         H48       1.0000    0.26030   0.17390   0.35990   Biso      1.000     H          0.118334  
         O1        1.0000    0.56960   0.56046   0.37148   Biso      1.000     O          -0.507296           
         O2        1.0000    0.59380   0.10904   0.09075   Biso      1.000     O          -0.51879  
         O3        1.0000    0.43040   0.06046   0.87148   Biso      1.000     O          -0.507299           
         O4        1.0000    0.15420   0.66049   0.56140   Biso      1.000     O          -0.575869           
         O5        1.0000    0.85900   0.93212   0.89463   Biso      1.000     O          -0.5261   
         O6        1.0000    0.61030   0.07438   0.94489   Biso      1.000     O          -0.392205           
         O7        1.0000    0.09990   0.98246   0.85715   Biso      1.000     O          -0.534187           
         O8        1.0000    0.40620   0.60904   0.59075   Biso      1.000     O          -0.51879  
         O9        1.0000    0.17440   0.99690   0.98628   Biso      1.000     O          -0.683516           
         O10       1.0000    0.43040   0.43954   0.62852   Biso      1.000     O          -0.5073   
         O11       1.0000    0.82560   0.49690   0.48628   Biso      1.000     O          -0.683517           
         O12       1.0000    0.85900   0.56788   0.60537   Biso      1.000     O          -0.526101           
         O13       1.0000    0.61030   0.42562   0.55511   Biso      1.000     O          -0.392209           
         O14       1.0000    0.09990   0.51754   0.64285   Biso      1.000     O          -0.534188           
         O15       1.0000    0.15420   0.83951   0.93860   Biso      1.000     O          -0.575868           
         O16       1.0000    0.17440   0.50310   0.51372   Biso      1.000     O          -0.68352  
         O17       1.0000    0.90010   0.48246   0.35715   Biso      1.000     O          -0.534188           
         O18       1.0000    0.40620   0.89096   0.90925   Biso      1.000     O          -0.518791           
         O19       1.0000    0.14100   0.43212   0.39463   Biso      1.000     O          -0.526101           
         O20       1.0000    0.84580   0.16049   0.06140   Biso      1.000     O          -0.575868           
         O21       1.0000    0.82560   0.00310   0.01372   Biso      1.000     O          -0.683525           
         O22       1.0000    0.38970   0.57438   0.44489   Biso      1.000     O          -0.392197           
         O23       1.0000    0.90010   0.01754   0.14285   Biso      1.000     O          -0.534187           
         O24       1.0000    0.38970   0.92562   0.05511   Biso      1.000     O          -0.392199           
         O25       1.0000    0.14100   0.06788   0.10537   Biso      1.000     O          -0.526101           
         O26       1.0000    0.84580   0.33951   0.43860   Biso      1.000     O          -0.575868           
         O27       1.0000    0.56960   0.93954   0.12852   Biso      1.000     O          -0.507295           
         O28       1.0000    0.59380   0.39096   0.40925   Biso      1.000     O          -0.51879  
         Zn1       1.0000    0.70556   0.49051   0.41267   Biso      1.000     Zn          0.93672   
         Zn2       1.0000    0.02615   0.42156   0.46861   Biso      1.000     Zn          0.992967  
         Zn3       1.0000    0.70556   0.00949   0.08733   Biso      1.000     Zn          0.93672   
         Zn4       1.0000    0.02615   0.07844   0.03139   Biso      1.000     Zn          0.992968  
         Zn5       1.0000    0.29444   0.50949   0.58733   Biso      1.000     Zn          0.936721  
         Zn6       1.0000    0.97385   0.57844   0.53139   Biso      1.000     Zn          0.992967  
         Zn7       1.0000    0.29444   0.99051   0.91267   Biso      1.000     Zn          0.936721  
         Zn8       1.0000    0.97385   0.92156   0.96861   Biso      1.000     Zn          0.992968 