
##########################################################################
#               Crystallographic Information Format file
#               Produced by PyCifRW module
#
#  This is a CIF file.  CIF has been adopted by the International
#  Union of Crystallography as the standard for data archiving and
#  transmission.
#
#  For information on this file format, follow the CIF links at
#  http://www.iucr.org
##########################################################################

data_image0

_cell_length_a                          13.4566
_cell_length_b                          18.9975
_cell_length_c                          18.9975
_cell_angle_alpha                       120
_cell_angle_beta                        90
_cell_angle_gamma                       90
_symmetry_space_group_name_H-M          'P 1'
_symmetry_int_tables_number             1
loop_
  _symmetry_equiv_pos_as_xyz
         'x, y, z' 
loop_
  _atom_site_label
  _atom_site_occupancy
  _atom_site_fract_x
  _atom_site_fract_y
  _atom_site_fract_z
  _atom_site_thermal_displace_type
  _atom_site_B_iso_or_equiv
  _atom_site_type_symbol
  _atom_site_charge
         C1        1.0000    0.75510   0.20720   0.23620   Biso      1.000     C          0.60117   
         C2        1.0000    0.01130   0.42030   0.96110   Biso      1.000     C          0.062469  
         C3        1.0000    0.75510   0.02900   0.23620   Biso      1.000     C          0.601169  
         C4        1.0000    0.70590   0.95350   0.17340   Biso      1.000     C          -0.057689           
         C5        1.0000    0.60550   0.94140   0.17950   Biso      1.000     C          0.084174  
         C6        1.0000    0.88820   0.11950   0.42850   Biso      1.000     C          0.595528  
         C7        1.0000    0.93060   0.08920   0.48200   Biso      1.000     C          -0.054373           
         C8        1.0000    0.01130   0.03890   0.45920   Biso      1.000     C          0.06247   
         C9        1.0000    0.75510   0.76380   0.79280   Biso      1.000     C          0.601175  
         C10       1.0000    0.70590   0.82660   0.78010   Biso      1.000     C          -0.057697           
         C11       1.0000    0.60550   0.82050   0.76190   Biso      1.000     C          0.084185  
         C12       1.0000    0.88820   0.57150   0.69100   Biso      1.000     C          0.595522  
         C13       1.0000    0.93060   0.51800   0.60720   Biso      1.000     C          -0.054369           
         C14       1.0000    0.01130   0.54080   0.57970   Biso      1.000     C          0.062472  
         C15       1.0000    0.01130   0.03890   0.57970   Biso      1.000     C          0.062465  
         C16       1.0000    0.93060   0.08920   0.60720   Biso      1.000     C          -0.054363           
         C17       1.0000    0.88820   0.11950   0.69100   Biso      1.000     C          0.595521  
         C18       1.0000    0.60550   0.94140   0.76190   Biso      1.000     C          0.084184  
         C19       1.0000    0.93060   0.39280   0.91080   Biso      1.000     C          -0.054369           
         C20       1.0000    0.70590   0.95350   0.78010   Biso      1.000     C          -0.057696           
         C21       1.0000    0.88820   0.30900   0.88050   Biso      1.000     C          0.595519  
         C22       1.0000    0.70590   0.21990   0.04650   Biso      1.000     C          -0.057682           
         C23       1.0000    0.10550   0.76190   0.94140   Biso      1.000     C          0.084198  
         C24       1.0000    0.38820   0.69100   0.11950   Biso      1.000     C          0.595528  
         C25       1.0000    0.43060   0.60720   0.08920   Biso      1.000     C          -0.054377           
         C26       1.0000    0.51130   0.57970   0.03890   Biso      1.000     C          0.062483  
         C27       1.0000    0.25510   0.97100   0.76380   Biso      1.000     C          0.601176  
         C28       1.0000    0.20590   0.04650   0.82660   Biso      1.000     C          -0.057703           
         C29       1.0000    0.10550   0.05860   0.82050   Biso      1.000     C          0.084203  
         C30       1.0000    0.38820   0.88050   0.57150   Biso      1.000     C          0.595521  
         C31       1.0000    0.43060   0.91080   0.51800   Biso      1.000     C          -0.054391           
         C32       1.0000    0.51130   0.96110   0.54080   Biso      1.000     C          0.062522  
         C33       1.0000    0.25510   0.23620   0.20720   Biso      1.000     C          0.601171  
         C34       1.0000    0.20590   0.17340   0.21990   Biso      1.000     C          -0.057691           
         C35       1.0000    0.10550   0.17950   0.23810   Biso      1.000     C          0.084187  
         C36       1.0000    0.38820   0.42850   0.30900   Biso      1.000     C          0.595528  
         C37       1.0000    0.43060   0.48200   0.39280   Biso      1.000     C          -0.054395           
         C38       1.0000    0.51130   0.45920   0.42030   Biso      1.000     C          0.062522  
         C39       1.0000    0.75510   0.20720   0.97100   Biso      1.000     C          0.601164  
         C40       1.0000    0.60550   0.23810   0.05860   Biso      1.000     C          0.084185  
         C41       1.0000    0.75510   0.02900   0.79280   Biso      1.000     C          0.601174  
         C42       1.0000    0.01130   0.42030   0.45920   Biso      1.000     C          0.062466  
         C43       1.0000    0.93060   0.39280   0.48200   Biso      1.000     C          -0.054368           
         C44       1.0000    0.43060   0.48200   0.08920   Biso      1.000     C          -0.054377           
         C45       1.0000    0.38820   0.42850   0.11950   Biso      1.000     C          0.595528  
         C46       1.0000    0.10550   0.17950   0.94140   Biso      1.000     C          0.084199  
         C47       1.0000    0.20590   0.17340   0.95350   Biso      1.000     C          -0.057704           
         C48       1.0000    0.25510   0.23620   0.02900   Biso      1.000     C          0.601173  
         C49       1.0000    0.88440   0.44400   0.55600   Biso      1.000     C          -0.0763   
         C50       1.0000    0.88440   0.11200   0.55600   Biso      1.000     C          -0.0763   
         C51       1.0000    0.88440   0.44400   0.88800   Biso      1.000     C          -0.076304           
         C52       1.0000    0.38440   0.55600   0.44400   Biso      1.000     C          -0.076315           
         C53       1.0000    0.38440   0.88800   0.44400   Biso      1.000     C          -0.076315           
         C54       1.0000    0.38440   0.55600   0.11200   Biso      1.000     C          -0.076308           
         C55       1.0000    0.75710   0.89420   0.78840   Biso      1.000     C          -0.068806           
         C56       1.0000    0.75710   0.89420   0.10580   Biso      1.000     C          -0.068797           
         C57       1.0000    0.75710   0.21160   0.10580   Biso      1.000     C          -0.068792           
         C58       1.0000    0.25710   0.10580   0.21160   Biso      1.000     C          -0.068788           
         C59       1.0000    0.25710   0.10580   0.89420   Biso      1.000     C          -0.068792           
         C60       1.0000    0.25710   0.78840   0.89420   Biso      1.000     C          -0.068792           
         C61       1.0000    0.51130   0.45920   0.03890   Biso      1.000     C          0.062485  
         C62       1.0000    0.25510   0.79280   0.76380   Biso      1.000     C          0.601176  
         C63       1.0000    0.20590   0.78010   0.82660   Biso      1.000     C          -0.057703           
         C64       1.0000    0.10550   0.76190   0.82050   Biso      1.000     C          0.084202  
         C65       1.0000    0.88820   0.30900   0.42850   Biso      1.000     C          0.595527  
         C66       1.0000    0.60550   0.23810   0.17950   Biso      1.000     C          0.084178  
         C67       1.0000    0.70590   0.21990   0.17340   Biso      1.000     C          -0.057683           
         C68       1.0000    0.01130   0.54080   0.96110   Biso      1.000     C          0.06247   
         C69       1.0000    0.93060   0.51800   0.91080   Biso      1.000     C          -0.054368           
         C70       1.0000    0.88820   0.57150   0.88050   Biso      1.000     C          0.59552   
         C71       1.0000    0.60550   0.82050   0.05860   Biso      1.000     C          0.08418   
         C72       1.0000    0.70590   0.82660   0.04650   Biso      1.000     C          -0.057684           
         C73       1.0000    0.20590   0.78010   0.95350   Biso      1.000     C          -0.057704           
         C74       1.0000    0.75510   0.76380   0.97100   Biso      1.000     C          0.601163  
         C75       1.0000    0.43060   0.91080   0.39280   Biso      1.000     C          -0.054393           
         C76       1.0000    0.38820   0.88050   0.30900   Biso      1.000     C          0.59553   
         C77       1.0000    0.10550   0.05860   0.23810   Biso      1.000     C          0.084185  
         C78       1.0000    0.20590   0.04650   0.21990   Biso      1.000     C          -0.057689           
         C79       1.0000    0.25510   0.97100   0.20720   Biso      1.000     C          0.601172  
         C80       1.0000    0.51130   0.57970   0.54080   Biso      1.000     C          0.062513  
         C81       1.0000    0.43060   0.60720   0.51800   Biso      1.000     C          -0.054387           
         C82       1.0000    0.38820   0.69100   0.57150   Biso      1.000     C          0.59552   
         C83       1.0000    0.51130   0.96110   0.42030   Biso      1.000     C          0.062524  
         C84       1.0000    0.25510   0.79280   0.02900   Biso      1.000     C          0.601174  
         Cu1       1.0000    0.73874   0.62278   0.81139   Biso      1.000     Cu          0.876179  
         Cu2       1.0000    0.40660   0.85366   0.14634   Biso      1.000     Cu          0.795619  
         Cu3       1.0000    0.90660   0.70732   0.85366   Biso      1.000     Cu          0.795656  
         Cu4       1.0000    0.73874   0.18861   0.37722   Biso      1.000     Cu          0.876248  
         Cu5       1.0000    0.90660   0.14634   0.29268   Biso      1.000     Cu          0.795666  
         Cu6       1.0000    0.73874   0.18861   0.81139   Biso      1.000     Cu          0.876176  
         Cu7       1.0000    0.90660   0.14634   0.85366   Biso      1.000     Cu          0.795649  
         Cu8       1.0000    0.23874   0.37722   0.18861   Biso      1.000     Cu          0.876274  
         Cu9       1.0000    0.40660   0.29268   0.14634   Biso      1.000     Cu          0.795636  
         Cu10      1.0000    0.23874   0.81139   0.62278   Biso      1.000     Cu          0.876195  
         Cu11      1.0000    0.40660   0.85366   0.70732   Biso      1.000     Cu          0.795585  
         Cu12      1.0000    0.23874   0.81139   0.18861   Biso      1.000     Cu          0.87631   
         H1        1.0000    0.53940   0.97820   0.59160   Biso      1.000     H          0.104607  
         H2        1.0000    0.07140   0.22490   0.24460   Biso      1.000     H          0.108746  
         H3        1.0000    0.53940   0.40840   0.38660   Biso      1.000     H          0.104603  
         H4        1.0000    0.57140   0.24460   0.01970   Biso      1.000     H          0.108747  
         H5        1.0000    0.03940   0.38660   0.97820   Biso      1.000     H          0.104612  
         H6        1.0000    0.32490   0.10035   0.89965   Biso      1.000     H          0.139449  
         H7        1.0000    0.03940   0.02180   0.40840   Biso      1.000     H          0.104615  
         H8        1.0000    0.57140   0.77510   0.75540   Biso      1.000     H          0.108728  
         H9        1.0000    0.03940   0.59160   0.61340   Biso      1.000     H          0.104615  
         H10       1.0000    0.07140   0.01970   0.77510   Biso      1.000     H          0.108737  
         H11       1.0000    0.57140   0.98030   0.22490   Biso      1.000     H          0.108742  
         H12       1.0000    0.07140   0.75540   0.98030   Biso      1.000     H          0.108734  
         H13       1.0000    0.53940   0.61340   0.02180   Biso      1.000     H          0.104619  
         H14       1.0000    0.57140   0.98030   0.75540   Biso      1.000     H          0.108727  
         H15       1.0000    0.32490   0.10035   0.20070   Biso      1.000     H          0.139462  
         H16       1.0000    0.82490   0.20070   0.10035   Biso      1.000     H          0.139463  
         H17       1.0000    0.82490   0.89965   0.10035   Biso      1.000     H          0.139459  
         H18       1.0000    0.82490   0.89965   0.79930   Biso      1.000     H          0.139452  
         H19       1.0000    0.32100   0.56865   0.13730   Biso      1.000     H          0.142097  
         H20       1.0000    0.32100   0.86270   0.43135   Biso      1.000     H          0.142084  
         H21       1.0000    0.32100   0.56865   0.43135   Biso      1.000     H          0.142081  
         H22       1.0000    0.82100   0.43135   0.86270   Biso      1.000     H          0.142098  
         H23       1.0000    0.82100   0.13730   0.56865   Biso      1.000     H          0.142099  
         H24       1.0000    0.03940   0.02180   0.61340   Biso      1.000     H          0.104616  
         H25       1.0000    0.82100   0.43135   0.56865   Biso      1.000     H          0.142101  
         H26       1.0000    0.32490   0.79930   0.89965   Biso      1.000     H          0.139446  
         H27       1.0000    0.53940   0.40840   0.02180   Biso      1.000     H          0.10462   
         H28       1.0000    0.07140   0.75540   0.77510   Biso      1.000     H          0.108736  
         H29       1.0000    0.53940   0.61340   0.59160   Biso      1.000     H          0.104607  
         H30       1.0000    0.07140   0.01970   0.24460   Biso      1.000     H          0.108747  
         H31       1.0000    0.53940   0.97820   0.38660   Biso      1.000     H          0.104604  
         H32       1.0000    0.57140   0.77510   0.01970   Biso      1.000     H          0.108744  
         H33       1.0000    0.03940   0.59160   0.97820   Biso      1.000     H          0.104615  
         H34       1.0000    0.57140   0.24460   0.22490   Biso      1.000     H          0.108746  
         H35       1.0000    0.03940   0.38660   0.40840   Biso      1.000     H          0.104612  
         H36       1.0000    0.07140   0.22490   0.98030   Biso      1.000     H          0.108734  
         N1        1.0000    0.55450   0.87653   0.12347   Biso      1.000     N          -0.221057           
         N2        1.0000    0.05450   0.12347   0.87653   Biso      1.000     N          -0.221168           
         N3        1.0000    0.05450   0.12347   0.24694   Biso      1.000     N          -0.221047           
         N4        1.0000    0.55450   0.24694   0.12347   Biso      1.000     N          -0.221058           
         N5        1.0000    0.05450   0.75306   0.87653   Biso      1.000     N          -0.221169           
         N6        1.0000    0.55450   0.87653   0.75306   Biso      1.000     N          -0.221205           
         N7        1.0000    0.55140   0.98690   0.49345   Biso      1.000     N          -0.25372  
         N8        1.0000    0.55140   0.50655   0.49345   Biso      1.000     N          -0.253723           
         N9        1.0000    0.05140   0.49345   0.98690   Biso      1.000     N          -0.253526           
         N10       1.0000    0.05140   0.01310   0.50655   Biso      1.000     N          -0.253514           
         N11       1.0000    0.05140   0.49345   0.50655   Biso      1.000     N          -0.253514           
         N12       1.0000    0.55140   0.50655   0.01310   Biso      1.000     N          -0.253491           
         O1        1.0000    0.94270   0.11220   0.74110   Biso      1.000     O          -0.529095           
         O2        1.0000    0.70230   0.07660   0.78040   Biso      1.000     O          -0.550061           
         O3        1.0000    0.84340   0.03980   0.81560   Biso      1.000     O          -0.510234           
         O4        1.0000    0.80240   0.29430   0.44430   Biso      1.000     O          -0.522123           
         O5        1.0000    0.94270   0.25890   0.37110   Biso      1.000     O          -0.529144           
         O6        1.0000    0.70230   0.21960   0.29620   Biso      1.000     O          -0.550054           
         O7        1.0000    0.84340   0.18440   0.22420   Biso      1.000     O          -0.510226           
         O8        1.0000    0.80240   0.55570   0.85000   Biso      1.000     O          -0.52214  
         O9        1.0000    0.94270   0.62890   0.88780   Biso      1.000     O          -0.529101           
         O10       1.0000    0.70230   0.70380   0.92340   Biso      1.000     O          -0.550052           
         O11       1.0000    0.30240   0.85000   0.29430   Biso      1.000     O          -0.522147           
         O12       1.0000    0.80240   0.15000   0.70570   Biso      1.000     O          -0.522121           
         O13       1.0000    0.44270   0.88780   0.25890   Biso      1.000     O          -0.529047           
         O14       1.0000    0.20230   0.92340   0.21960   Biso      1.000     O          -0.550047           
         O15       1.0000    0.34340   0.96020   0.18440   Biso      1.000     O          -0.510203           
         O16       1.0000    0.30240   0.70570   0.55570   Biso      1.000     O          -0.522137           
         O17       1.0000    0.44270   0.74110   0.62890   Biso      1.000     O          -0.528952           
         O18       1.0000    0.20230   0.78040   0.70380   Biso      1.000     O          -0.549993           
         O19       1.0000    0.34340   0.81560   0.77580   Biso      1.000     O          -0.510198           
         O20       1.0000    0.30240   0.44430   0.15000   Biso      1.000     O          -0.522117           
         O21       1.0000    0.44270   0.37110   0.11220   Biso      1.000     O          -0.529128           
         O22       1.0000    0.84340   0.77580   0.96020   Biso      1.000     O          -0.510189           
         O23       1.0000    0.34340   0.81560   0.03980   Biso      1.000     O          -0.510236           
         O24       1.0000    0.30240   0.70570   0.15000   Biso      1.000     O          -0.522116           
         O25       1.0000    0.44270   0.74110   0.11220   Biso      1.000     O          -0.529128           
         O26       1.0000    0.20230   0.29620   0.07660   Biso      1.000     O          -0.55001  
         O27       1.0000    0.80240   0.55570   0.70570   Biso      1.000     O          -0.522121           
         O28       1.0000    0.94270   0.62890   0.74110   Biso      1.000     O          -0.529097           
         O29       1.0000    0.70230   0.70380   0.78040   Biso      1.000     O          -0.550061           
         O30       1.0000    0.84340   0.77580   0.81560   Biso      1.000     O          -0.510235           
         O31       1.0000    0.80240   0.15000   0.44430   Biso      1.000     O          -0.522121           
         O32       1.0000    0.94270   0.11220   0.37110   Biso      1.000     O          -0.529144           
         O33       1.0000    0.70230   0.07660   0.29620   Biso      1.000     O          -0.550056           
         O34       1.0000    0.84340   0.03980   0.22420   Biso      1.000     O          -0.510228           
         O35       1.0000    0.80240   0.29430   0.85000   Biso      1.000     O          -0.522141           
         O36       1.0000    0.94270   0.25890   0.88780   Biso      1.000     O          -0.529099           
         O37       1.0000    0.70230   0.21960   0.92340   Biso      1.000     O          -0.550051           
         O38       1.0000    0.84340   0.18440   0.96020   Biso      1.000     O          -0.510186           
         O39       1.0000    0.30240   0.44430   0.29430   Biso      1.000     O          -0.522148           
         O40       1.0000    0.44270   0.37110   0.25890   Biso      1.000     O          -0.529047           
         O41       1.0000    0.20230   0.29620   0.21960   Biso      1.000     O          -0.550046           
         O42       1.0000    0.34340   0.22420   0.18440   Biso      1.000     O          -0.510201           
         O43       1.0000    0.30240   0.85000   0.55570   Biso      1.000     O          -0.522136           
         O44       1.0000    0.44270   0.88780   0.62890   Biso      1.000     O          -0.528952           
         O45       1.0000    0.20230   0.92340   0.70380   Biso      1.000     O          -0.549994           
         O46       1.0000    0.34340   0.96020   0.77580   Biso      1.000     O          -0.510199           
         O47       1.0000    0.20230   0.78040   0.07660   Biso      1.000     O          -0.55001  
         O48       1.0000    0.34340   0.22420   0.03980   Biso      1.000     O          -0.510235 