data_image0
_cell_length_a       6.8131
_cell_length_b       15.782
_cell_length_c       11.155
_cell_angle_alpha    90
_cell_angle_beta     103.078
_cell_angle_gamma    90

_symmetry_space_group_name_H-M    "P 1"
_symmetry_int_tables_number       1

loop_
  _symmetry_equiv_pos_as_xyz
  'x, y, z'

loop_
  _atom_site_label
  _atom_site_occupancy
  _atom_site_fract_x
  _atom_site_fract_y
  _atom_site_fract_z
  _atom_site_thermal_displace_type
  _atom_site_B_iso_or_equiv
  _atom_site_type_symbol
  _atom_site_charge
  C1       1.0000 0.70460  0.38172  0.12710  Biso   1.000  C  0.615806
  C2       1.0000 0.29540  0.38172  0.87290  Biso   1.000  C  0.615806
  C3       1.0000 0.29540  0.61828  0.87290  Biso   1.000  C  0.615805
  C4       1.0000 0.70460  0.61828  0.12710  Biso   1.000  C  0.615805
  C5       1.0000 0.81820  0.30500  0.18450  Biso   1.000  C  -0.047952
  C6       1.0000 0.18180  0.30500  0.81550  Biso   1.000  C  -0.047952
  C7       1.0000 0.18180  0.69500  0.81550  Biso   1.000  C  -0.047952
  C8       1.0000 0.81820  0.69500  0.18450  Biso   1.000  C  -0.047952
  C9       1.0000 0.73180  0.24960  0.25440  Biso   1.000  C  -0.103253
  C10      1.0000 0.26820  0.24960  0.74560  Biso   1.000  C  -0.103253
  C11      1.0000 0.26820  0.75040  0.74560  Biso   1.000  C  -0.103253
  C12      1.0000 0.73180  0.75040  0.25440  Biso   1.000  C  -0.103253
  C13      1.0000 0.82930  0.17590  0.30170  Biso   1.000  C  -0.148983
  C14      1.0000 0.17070  0.17590  0.69830  Biso   1.000  C  -0.148982
  C15      1.0000 0.17070  0.82410  0.69830  Biso   1.000  C  -0.148983
  C16      1.0000 0.82930  0.82410  0.30170  Biso   1.000  C  -0.148982
  C17      1.0000 0.01690  0.15690  0.28070  Biso   1.000  C  0.086716
  C18      1.0000 0.98310  0.15690  0.71930  Biso   1.000  C  0.086716
  C19      1.0000 0.98310  0.84310  0.71930  Biso   1.000  C  0.086716
  C20      1.0000 0.01690  0.84310  0.28070  Biso   1.000  C  0.086716
  C21      1.0000 0.10290  0.21270  0.21110  Biso   1.000  C  -0.148671
  C22      1.0000 0.89710  0.21270  0.78890  Biso   1.000  C  -0.148671
  C23      1.0000 0.89710  0.78730  0.78890  Biso   1.000  C  -0.148671
  C24      1.0000 0.10290  0.78730  0.21110  Biso   1.000  C  -0.148671
  C25      1.0000 0.00370  0.28530  0.16120  Biso   1.000  C  -0.097995
  C26      1.0000 0.99630  0.28530  0.83880  Biso   1.000  C  -0.097995
  C27      1.0000 0.99630  0.71470  0.83880  Biso   1.000  C  -0.097995
  C28      1.0000 0.00370  0.71470  0.16120  Biso   1.000  C  -0.097995
  C29      1.0000 0.12230  0.07630  0.33210  Biso   1.000  C  0.030288
  C30      1.0000 0.87770  0.07630  0.66790  Biso   1.000  C  0.030288
  C31      1.0000 0.87770  0.92370  0.66790  Biso   1.000  C  0.030288
  C32      1.0000 0.12230  0.92370  0.33210  Biso   1.000  C  0.030288
  C33      1.0000 0.02790  0.00000  0.29430  Biso   1.000  C  -0.199928
  C34      1.0000 0.97210  0.00000  0.70570  Biso   1.000  C  -0.199928
  C35      1.0000 0.31360  0.07888  0.41520  Biso   1.000  C  0.021438
  C36      1.0000 0.68640  0.07888  0.58480  Biso   1.000  C  0.021436
  C37      1.0000 0.68640  0.92112  0.58480  Biso   1.000  C  0.021438
  C38      1.0000 0.31360  0.92112  0.41520  Biso   1.000  C  0.021436
  C39      1.0000 0.40390  0.00000  0.45610  Biso   1.000  C  -0.002161
  C40      1.0000 0.59610  0.00000  0.54390  Biso   1.000  C  -0.002161
  C41      1.0000 0.41010  0.15630  0.45860  Biso   1.000  C  -0.135690
  C42      1.0000 0.58990  0.15630  0.54140  Biso   1.000  C  -0.135673
  C43      1.0000 0.58990  0.84370  0.54140  Biso   1.000  C  -0.135690
  C44      1.0000 0.41010  0.84370  0.45860  Biso   1.000  C  -0.135673
  H1       1.0000 0.21550  0.50000  0.27200  Biso   1.000  H  0.478678
  H2       1.0000 0.78450  0.50000  0.72800  Biso   1.000  H  0.478678
  H3       1.0000 0.60360  0.26250  0.26990  Biso   1.000  H  0.106721
  H4       1.0000 0.39640  0.26250  0.73010  Biso   1.000  H  0.106721
  H5       1.0000 0.39640  0.73750  0.73010  Biso   1.000  H  0.106721
  H6       1.0000 0.60360  0.73750  0.26990  Biso   1.000  H  0.106721
  H7       1.0000 0.76750  0.13840  0.34860  Biso   1.000  H  0.110269
  H8       1.0000 0.23250  0.13840  0.65140  Biso   1.000  H  0.110269
  H9       1.0000 0.23250  0.86160  0.65140  Biso   1.000  H  0.110269
  H10      1.0000 0.76750  0.86160  0.34860  Biso   1.000  H  0.110269
  H11      1.0000 0.23270  0.20060  0.19740  Biso   1.000  H  0.115293
  H12      1.0000 0.76730  0.20060  0.80260  Biso   1.000  H  0.115293
  H13      1.0000 0.76730  0.79940  0.80260  Biso   1.000  H  0.115293
  H14      1.0000 0.23270  0.79940  0.19740  Biso   1.000  H  0.115293
  H15      1.0000 0.06270  0.32150  0.11110  Biso   1.000  H  0.113372
  H16      1.0000 0.93730  0.32150  0.88890  Biso   1.000  H  0.113372
  H17      1.0000 0.93730  0.67850  0.88890  Biso   1.000  H  0.113372
  H18      1.0000 0.06270  0.67850  0.11110  Biso   1.000  H  0.113372
  H19      1.0000 0.89690  0.00000  0.24190  Biso   1.000  H  0.130230
  H20      1.0000 0.10310  0.00000  0.75810  Biso   1.000  H  0.130230
  H21      1.0000 0.34820  0.20860  0.42950  Biso   1.000  H  0.115859
  H22      1.0000 0.65180  0.20860  0.57050  Biso   1.000  H  0.115858
  H23      1.0000 0.65180  0.79140  0.57050  Biso   1.000  H  0.115858
  H24      1.0000 0.34820  0.79140  0.42950  Biso   1.000  H  0.115858
  H25      1.0000 0.03030  0.50000  0.13780  Biso   1.000  H  0.477199
  H26      1.0000 0.96970  0.50000  0.86220  Biso   1.000  H  0.477199
  O1       1.0000 0.55920  0.40663  0.16780  Biso   1.000  O  -0.574694
  O2       1.0000 0.44080  0.40663  0.83220  Biso   1.000  O  -0.574694
  O3       1.0000 0.44080  0.59337  0.83220  Biso   1.000  O  -0.574694
  O4       1.0000 0.55920  0.59337  0.16780  Biso   1.000  O  -0.574694
  O5       1.0000 0.15800  0.50000  0.18350  Biso   1.000  O  -0.784099
  O6       1.0000 0.84200  0.50000  0.81650  Biso   1.000  O  -0.784099
  O7       1.0000 0.76010  0.41319  0.03910  Biso   1.000  O  -0.586056
  O8       1.0000 0.23990  0.41319  0.96090  Biso   1.000  O  -0.586056
  O9       1.0000 0.23990  0.58681  0.96090  Biso   1.000  O  -0.586056
  O10      1.0000 0.76010  0.58681  0.03910  Biso   1.000  O  -0.586056
  Zn1      1.0000 0.37182  0.50000  0.08955  Biso   1.000  Zn  0.955134
  Zn2      1.0000 0.62818  0.50000  0.91045  Biso   1.000  Zn  0.955134
