
##########################################################################
#               Crystallographic Information Format file
#               Produced by PyCifRW module
#
#  This is a CIF file.  CIF has been adopted by the International
#  Union of Crystallography as the standard for data archiving and
#  transmission.
#
#  For information on this file format, follow the CIF links at
#  http://www.iucr.org
##########################################################################

data_image0

_cell_length_a                          9.2211
_cell_length_b                          18.1848
_cell_length_c                          9.7227
_cell_angle_alpha                       90
_cell_angle_beta                        104.994
_cell_angle_gamma                       90
_symmetry_space_group_name_H-M          'P 1'
_symmetry_int_tables_number             1
loop_
  _symmetry_equiv_pos_as_xyz
         'x, y, z' 
loop_
  _atom_site_label
  _atom_site_occupancy
  _atom_site_fract_x
  _atom_site_fract_y
  _atom_site_fract_z
  _atom_site_thermal_displace_type
  _atom_site_B_iso_or_equiv
  _atom_site_type_symbol
  _atom_site_charge
         C1        1.0000    0.87590   0.28597   0.13360   Biso      1.000     C          0.004782  
         C2        1.0000    0.69470   0.19704   0.92510   Biso      1.000     C          -0.154058           
         C3        1.0000    0.80980   0.16611   0.03010   Biso      1.000     C          -0.010613           
         C4        1.0000    0.83720   0.08482   0.03130   Biso      1.000     C          0.567036  
         C5        1.0000    0.90000   0.21073   0.13390   Biso      1.000     C          -0.130646           
         C6        1.0000    0.97180   0.33375   0.24860   Biso      1.000     C          0.558541  
         C7        1.0000    0.32820   0.72698   0.08050   Biso      1.000     C          0.065046  
         C8        1.0000    0.76340   0.31685   0.02470   Biso      1.000     C          -0.150167           
         C9        1.0000    0.23660   0.68315   0.97530   Biso      1.000     C          -0.150167           
         C10       1.0000    0.12410   0.71403   0.86640   Biso      1.000     C          0.004782  
         C11       1.0000    0.02820   0.66625   0.75140   Biso      1.000     C          0.558541  
         C12       1.0000    0.30630   0.19388   0.14350   Biso      1.000     C          0.107208  
         C13       1.0000    0.41520   0.22837   0.24840   Biso      1.000     C          -0.184604           
         C14       1.0000    0.55330   0.19372   0.30330   Biso      1.000     C          0.128751  
         C15       1.0000    0.57400   0.12600   0.24580   Biso      1.000     C          -0.18775  
         C16       1.0000    0.46020   0.09453   0.14180   Biso      1.000     C          0.089898  
         C17       1.0000    0.67180   0.22698   0.41950   Biso      1.000     C          0.065046  
         C18       1.0000    0.69470   0.30296   0.42510   Biso      1.000     C          -0.154058           
         C19       1.0000    0.53980   0.59453   0.35820   Biso      1.000     C          0.089893  
         C20       1.0000    0.42600   0.62600   0.25420   Biso      1.000     C          -0.187747           
         C21       1.0000    0.44670   0.69372   0.19670   Biso      1.000     C          0.128752  
         C22       1.0000    0.58480   0.72837   0.25160   Biso      1.000     C          -0.184607           
         C23       1.0000    0.69370   0.69388   0.35650   Biso      1.000     C          0.10721199999999999           
         C24       1.0000    0.19020   0.83389   0.96990   Biso      1.000     C          -0.010614           
         C25       1.0000    0.67180   0.27302   0.91950   Biso      1.000     C          0.065046  
         C26       1.0000    0.16280   0.91518   0.96870   Biso      1.000     C          0.567036  
         C27       1.0000    0.76340   0.18315   0.52470   Biso      1.000     C          -0.150167           
         C28       1.0000    0.87590   0.21403   0.63360   Biso      1.000     C          0.004782  
         C29       1.0000    0.97180   0.16625   0.74860   Biso      1.000     C          0.558541  
         C30       1.0000    0.90000   0.28927   0.63390   Biso      1.000     C          -0.130646           
         C31       1.0000    0.83720   0.41518   0.53130   Biso      1.000     C          0.567036  
         C32       1.0000    0.80980   0.33389   0.53010   Biso      1.000     C          -0.010613           
         C33       1.0000    0.10000   0.78927   0.86610   Biso      1.000     C          -0.130646           
         C34       1.0000    0.46020   0.40547   0.64180   Biso      1.000     C          0.089893  
         C35       1.0000    0.30530   0.80296   0.07490   Biso      1.000     C          -0.154058           
         C36       1.0000    0.19020   0.66611   0.46990   Biso      1.000     C          -0.010613           
         C37       1.0000    0.44670   0.80628   0.69670   Biso      1.000     C          0.128751  
         C38       1.0000    0.53980   0.90547   0.85820   Biso      1.000     C          0.089893  
         C39       1.0000    0.23660   0.81685   0.47530   Biso      1.000     C          -0.150167           
         C40       1.0000    0.12410   0.78597   0.36640   Biso      1.000     C          0.004782  
         C41       1.0000    0.58480   0.77163   0.75160   Biso      1.000     C          -0.184607           
         C42       1.0000    0.02820   0.83375   0.25140   Biso      1.000     C          0.558541  
         C43       1.0000    0.16280   0.58482   0.46870   Biso      1.000     C          0.567036  
         C44       1.0000    0.30630   0.30612   0.64350   Biso      1.000     C          0.107208  
         C45       1.0000    0.30530   0.69704   0.57490   Biso      1.000     C          -0.154058           
         C46       1.0000    0.41520   0.27163   0.74840   Biso      1.000     C          -0.184604           
         C47       1.0000    0.69370   0.80612   0.85650   Biso      1.000     C          0.10721199999999999           
         C48       1.0000    0.10000   0.71073   0.36610   Biso      1.000     C          -0.130646           
         C49       1.0000    0.55330   0.30628   0.80330   Biso      1.000     C          0.128751  
         C50       1.0000    0.57400   0.37400   0.74580   Biso      1.000     C          -0.187745           
         C51       1.0000    0.32820   0.77302   0.58050   Biso      1.000     C          0.065046  
         C52       1.0000    0.42600   0.87400   0.75420   Biso      1.000     C          -0.187745           
         Cd1       1.0000    0.86680   0.93390   0.06168   Biso      1.000     Cd          0.9124760000000001  
         Cd2       1.0000    0.13320   0.43390   0.43832   Biso      1.000     Cd          0.9124760000000001  
         Cd3       1.0000    0.13320   0.06610   0.93832   Biso      1.000     Cd          0.9124760000000001  
         Cd4       1.0000    0.86680   0.56610   0.56168   Biso      1.000     Cd          0.9124760000000001  
         H1        1.0000    0.36780   0.83310   0.14210   Biso      1.000     H          0.124859  
         H2        1.0000    0.33480   0.89840   0.72260   Biso      1.000     H          0.13281500000000002           
         H3        1.0000    0.78460   0.71790   0.39260   Biso      1.000     H          0.102005  
         H4        1.0000    0.74920   0.13250   0.52200   Biso      1.000     H          0.127776  
         H5        1.0000    0.60330   0.72570   0.71780   Biso      1.000     H          0.13467   
         H6        1.0000    0.60330   0.77430   0.21780   Biso      1.000     H          0.13467   
         H7        1.0000    0.52340   0.95100   0.89490   Biso      1.000     H          0.100352  
         H8        1.0000    0.78460   0.78210   0.89260   Biso      1.000     H          0.102005  
         H9        1.0000    0.33480   0.60160   0.22260   Biso      1.000     H          0.13281500000000002           
         H10       1.0000    0.52340   0.54900   0.39490   Biso      1.000     H          0.100352  
         H11       1.0000    0.97720   0.31010   0.70420   Biso      1.000     H          0.126168  
         H12       1.0000    0.47660   0.45100   0.60510   Biso      1.000     H          0.100352  
         H13       1.0000    0.63220   0.33310   0.35790   Biso      1.000     H          0.124859  
         H14       1.0000    0.63220   0.16690   0.85790   Biso      1.000     H          0.124859  
         H15       1.0000    0.39670   0.22570   0.78220   Biso      1.000     H          0.13467   
         H16       1.0000    0.21540   0.28210   0.60740   Biso      1.000     H          0.102006  
         H17       1.0000    0.97720   0.18990   0.20420   Biso      1.000     H          0.126168  
         H18       1.0000    0.25080   0.63250   0.97800   Biso      1.000     H          0.127776  
         H19       1.0000    0.74920   0.36750   0.02200   Biso      1.000     H          0.127776  
         H20       1.0000    0.36780   0.66690   0.64210   Biso      1.000     H          0.12485999999999998           
         H21       1.0000    0.02280   0.81010   0.79580   Biso      1.000     H          0.126168  
         H22       1.0000    0.02280   0.68990   0.29580   Biso      1.000     H          0.126168  
         H23       1.0000    0.21540   0.21790   0.10740   Biso      1.000     H          0.102006  
         H24       1.0000    0.25080   0.86750   0.47800   Biso      1.000     H          0.127776  
         H25       1.0000    0.39670   0.27430   0.28220   Biso      1.000     H          0.13467   
         H26       1.0000    0.66520   0.10160   0.27740   Biso      1.000     H          0.13281500000000002           
         H27       1.0000    0.47660   0.04900   0.10510   Biso      1.000     H          0.100351  
         H28       1.0000    0.66520   0.39840   0.77740   Biso      1.000     H          0.13281500000000002           
         N1        1.0000    0.67430   0.62751   0.40870   Biso      1.000     N          -0.238144           
         N2        1.0000    0.32570   0.37249   0.59130   Biso      1.000     N          -0.238144           
         N3        1.0000    0.32570   0.12751   0.09130   Biso      1.000     N          -0.238144           
         N4        1.0000    0.67430   0.87249   0.90870   Biso      1.000     N          -0.238144           
         O1        1.0000    0.26880   0.95719   0.02480   Biso      1.000     O          -0.534447           
         O2        1.0000    0.03150   0.93870   0.90840   Biso      1.000     O          -0.569658           
         O3        1.0000    0.07790   0.30591   0.33820   Biso      1.000     O          -0.5699649999999999           
         O4        1.0000    0.93810   0.09888   0.74880   Biso      1.000     O          -0.552334           
         O5        1.0000    0.96850   0.43870   0.59160   Biso      1.000     O          -0.569658           
         O6        1.0000    0.73120   0.45719   0.47520   Biso      1.000     O          -0.534447           
         O7        1.0000    0.06190   0.59888   0.75120   Biso      1.000     O          -0.552334           
         O8        1.0000    0.93810   0.40112   0.24880   Biso      1.000     O          -0.552334           
         O9        1.0000    0.96850   0.06130   0.09160   Biso      1.000     O          -0.569658           
         O10       1.0000    0.73120   0.04281   0.97520   Biso      1.000     O          -0.534447           
         O11       1.0000    0.92210   0.80591   0.16180   Biso      1.000     O          -0.5699649999999999           
         O12       1.0000    0.06190   0.90112   0.25120   Biso      1.000     O          -0.552334           
         O13       1.0000    0.03150   0.56130   0.40840   Biso      1.000     O          -0.569658           
         O14       1.0000    0.26880   0.54281   0.52480   Biso      1.000     O          -0.534447           
         O15       1.0000    0.07790   0.19409   0.83820   Biso      1.000     O          -0.5699649999999999           
         O16       1.0000    0.92210   0.69409   0.66180   Biso      1.000     O          -0.5699649999999999 