
##########################################################################
#               Crystallographic Information Format file
#               Produced by PyCifRW module
#
#  This is a CIF file.  CIF has been adopted by the International
#  Union of Crystallography as the standard for data archiving and
#  transmission.
#
#  For information on this file format, follow the CIF links at
#  http://www.iucr.org
##########################################################################

data_image0

_cell_length_a                          10.016
_cell_length_b                          11.38
_cell_length_c                          12.821
_cell_angle_alpha                       80.39
_cell_angle_beta                        80.65
_cell_angle_gamma                       66.34
_symmetry_space_group_name_H-M          'P 1'
_symmetry_int_tables_number             1
loop_
  _symmetry_equiv_pos_as_xyz
         'x, y, z' 
loop_
  _atom_site_label
  _atom_site_occupancy
  _atom_site_fract_x
  _atom_site_fract_y
  _atom_site_fract_z
  _atom_site_thermal_displace_type
  _atom_site_B_iso_or_equiv
  _atom_site_type_symbol
  _atom_site_charge
         C1        1.0000    0.98000   0.36210   0.24080   Biso      1.000     C          0.519925  
         C2        1.0000    0.56780   0.97020   0.03320   Biso      1.000     C          0.498746  
         C3        1.0000    0.42000   0.53430   0.49020   Biso      1.000     C          0.502495  
         C4        1.0000    0.94330   0.26310   0.19660   Biso      1.000     C          0.48214700000000005           
         C5        1.0000    0.54700   0.67660   0.82650   Biso      1.000     C          0.5014029999999999  
         C6        1.0000    0.51960   0.73980   0.71620   Biso      1.000     C          0.526982  
         C7        1.0000    0.60010   0.20610   0.78930   Biso      1.000     C          0.43636800000000003           
         C8        1.0000    0.50800   0.20180   0.71370   Biso      1.000     C          0.523267  
         C9        1.0000    0.05670   0.73690   0.80340   Biso      1.000     C          0.48214399999999996           
         C10       1.0000    0.02000   0.63790   0.75920   Biso      1.000     C          0.519925  
         C11       1.0000    0.58000   0.46570   0.50980   Biso      1.000     C          0.502498  
         C12       1.0000    0.43220   0.02980   0.96680   Biso      1.000     C          0.498745  
         C13       1.0000    0.45300   0.32340   0.17350   Biso      1.000     C          0.501412  
         C14       1.0000    0.48040   0.26020   0.28380   Biso      1.000     C          0.526997  
         C15       1.0000    0.39990   0.79390   0.21070   Biso      1.000     C          0.43636899999999995           
         C16       1.0000    0.49200   0.79820   0.28630   Biso      1.000     C          0.523275  
         La1       1.0000    0.69862   0.89186   0.78818   Biso      1.000     La          1.8040180000000001  
         La2       1.0000    0.30138   0.10814   0.21182   Biso      1.000     La          1.8040169999999998  
         La3       1.0000    0.38025   0.51211   0.74961   Biso      1.000     La          1.799346  
         La4       1.0000    0.61975   0.48789   0.25039   Biso      1.000     La          1.799337  
         O1        1.0000    0.54940   0.30170   0.33240   Biso      1.000     O          -0.49376499999999995          
         O2        1.0000    0.43470   0.17350   0.31840   Biso      1.000     O          -0.47059700000000004          
         O3        1.0000    0.39240   0.28300   0.11900   Biso      1.000     O          -0.487285           
         O4        1.0000    0.49090   0.41890   0.13780   Biso      1.000     O          -0.48829700000000004          
         O5        1.0000    0.60180   0.69990   0.30380   Biso      1.000     O          -0.471763           
         O6        1.0000    0.42000   0.68950   0.17360   Biso      1.000     O          -0.438391           
         O7        1.0000    0.45850   0.90720   0.31090   Biso      1.000     O          -0.48341300000000004          
         O8        1.0000    0.04860   0.15980   0.17090   Biso      1.000     O          -0.479525           
         O9        1.0000    0.11170   0.32810   0.25190   Biso      1.000     O          -0.51034  
         O10       1.0000    0.87780   0.46370   0.25830   Biso      1.000     O          -0.46048599999999995          
         O11       1.0000    0.81330   0.28350   0.19340   Biso      1.000     O          -0.47051400000000004          
         O12       1.0000    0.40060   0.56060   0.39030   Biso      1.000     O          -0.478101           
         O13       1.0000    0.32230   0.56560   0.56450   Biso      1.000     O          -0.490176           
         O14       1.0000    0.28880   0.89970   0.18160   Biso      1.000     O          -0.452269           
         O15       1.0000    0.31570   0.10340   0.01590   Biso      1.000     O          -0.46002200000000004          
         O16       1.0000    0.58000   0.31050   0.82640   Biso      1.000     O          -0.438388           
         O17       1.0000    0.67770   0.43440   0.43550   Biso      1.000     O          -0.49017799999999995          
         O18       1.0000    0.59940   0.43940   0.60970   Biso      1.000     O          -0.478099           
         O19       1.0000    0.18670   0.71650   0.80660   Biso      1.000     O          -0.470516           
         O20       1.0000    0.12220   0.53630   0.74170   Biso      1.000     O          -0.46048199999999995          
         O21       1.0000    0.88830   0.67190   0.74810   Biso      1.000     O          -0.51034  
         O22       1.0000    0.95140   0.84020   0.82910   Biso      1.000     O          -0.47952  
         O23       1.0000    0.71120   0.10030   0.81840   Biso      1.000     O          -0.452276           
         O24       1.0000    0.54150   0.09280   0.68910   Biso      1.000     O          -0.483408           
         O25       1.0000    0.55230   0.99130   0.12510   Biso      1.000     O          -0.459776           
         O26       1.0000    0.39820   0.30010   0.69620   Biso      1.000     O          -0.47176899999999994          
         O27       1.0000    0.50910   0.58110   0.86220   Biso      1.000     O          -0.488299           
         O28       1.0000    0.60760   0.71700   0.88100   Biso      1.000     O          -0.487279           
         O29       1.0000    0.56530   0.82650   0.68160   Biso      1.000     O          -0.470596           
         O30       1.0000    0.45060   0.69830   0.66760   Biso      1.000     O          -0.493759           
         O31       1.0000    0.44770   0.00870   0.87490   Biso      1.000     O          -0.459772           
         O32       1.0000    0.68430   0.89660   0.98410   Biso      1.000     O          -0.46002 