
##########################################################################
#               Crystallographic Information Format file
#               Produced by PyCifRW module
#
#  This is a CIF file.  CIF has been adopted by the International
#  Union of Crystallography as the standard for data archiving and
#  transmission.
#
#  For information on this file format, follow the CIF links at
#  http://www.iucr.org
##########################################################################

data_image0

_cell_length_a                          13.4807
_cell_length_b                          13.4807
_cell_length_c                          13.4807
_cell_angle_alpha                       86.5535
_cell_angle_beta                        86.5535
_cell_angle_gamma                       86.5535
_symmetry_space_group_name_H-M          'P 1'
_symmetry_int_tables_number             1
loop_
  _symmetry_equiv_pos_as_xyz
         'x, y, z' 
loop_
  _atom_site_label
  _atom_site_occupancy
  _atom_site_fract_x
  _atom_site_fract_y
  _atom_site_fract_z
  _atom_site_thermal_displace_type
  _atom_site_B_iso_or_equiv
  _atom_site_type_symbol
  _atom_site_charge
         C1        1.0000    0.29045   0.99283   0.42031   Biso      1.000     C          -0.006349           
         C2        1.0000    0.00717   0.57969   0.70955   Biso      1.000     C          -0.006818           
         C3        1.0000    0.81755   0.00734   0.54835   Biso      1.000     C          0.603855  
         C4        1.0000    0.63906   0.00222   0.50996   Biso      1.000     C          -0.14124  
         C5        1.0000    0.70955   0.00717   0.57969   Biso      1.000     C          -0.006347           
         C6        1.0000    0.54835   0.81755   0.00734   Biso      1.000     C          0.599799  
         C7        1.0000    0.50996   0.63906   0.00222   Biso      1.000     C          -0.142089           
         C8        1.0000    0.57969   0.70955   0.00717   Biso      1.000     C          -0.002911           
         C9        1.0000    0.45165   0.99266   0.18245   Biso      1.000     C          0.599799  
         C10       1.0000    0.49004   0.99778   0.36094   Biso      1.000     C          -0.14209  
         C11       1.0000    0.00222   0.50996   0.63906   Biso      1.000     C          -0.141337           
         C12       1.0000    0.42031   0.99283   0.29045   Biso      1.000     C          -0.002912           
         C13       1.0000    0.99778   0.36094   0.49004   Biso      1.000     C          -0.14134  
         C14       1.0000    0.99283   0.29045   0.42031   Biso      1.000     C          -0.006816           
         C15       1.0000    0.18245   0.45165   0.99266   Biso      1.000     C          0.603856  
         C16       1.0000    0.36094   0.49004   0.99778   Biso      1.000     C          -0.141238           
         C17       1.0000    0.29045   0.42031   0.99283   Biso      1.000     C          -0.006347           
         C18       1.0000    0.99266   0.45165   0.18245   Biso      1.000     C          0.603855  
         C19       1.0000    0.99778   0.49004   0.36094   Biso      1.000     C          -0.141339           
         C20       1.0000    0.99283   0.42031   0.29045   Biso      1.000     C          -0.006816           
         C21       1.0000    0.18245   0.99266   0.45165   Biso      1.000     C          0.603855  
         C22       1.0000    0.99266   0.18245   0.45165   Biso      1.000     C          0.603854  
         C23       1.0000    0.00734   0.54835   0.81755   Biso      1.000     C          0.603855  
         C24       1.0000    0.49004   0.36094   0.99778   Biso      1.000     C          -0.142089           
         C25       1.0000    0.42031   0.29045   0.99283   Biso      1.000     C          -0.002912           
         C26       1.0000    0.32017   0.32017   0.98912   Biso      1.000     C          -0.119374           
         C27       1.0000    0.46144   0.46144   0.99944   Biso      1.000     C          0.071715  
         C28       1.0000    0.98912   0.32017   0.32017   Biso      1.000     C          -0.11864  
         C29       1.0000    0.99944   0.46144   0.46144   Biso      1.000     C          0.071279  
         C30       1.0000    0.32017   0.98912   0.32017   Biso      1.000     C          -0.119375           
         C31       1.0000    0.46144   0.99944   0.46144   Biso      1.000     C          0.071714  
         C32       1.0000    0.67983   0.67983   0.01088   Biso      1.000     C          -0.119377           
         C33       1.0000    0.53856   0.53856   0.00056   Biso      1.000     C          0.071715  
         C34       1.0000    0.67983   0.01088   0.67983   Biso      1.000     C          -0.119378           
         C35       1.0000    0.53856   0.00056   0.53856   Biso      1.000     C          0.071714  
         C36       1.0000    0.01088   0.67983   0.67983   Biso      1.000     C          -0.118643           
         C37       1.0000    0.00056   0.53856   0.53856   Biso      1.000     C          0.071279  
         C38       1.0000    0.70955   0.57969   0.00717   Biso      1.000     C          -0.006346           
         C39       1.0000    0.63906   0.50996   0.00222   Biso      1.000     C          -0.141237           
         C40       1.0000    0.81755   0.54835   0.00734   Biso      1.000     C          0.603855  
         C41       1.0000    0.00717   0.70955   0.57969   Biso      1.000     C          -0.006815           
         C42       1.0000    0.00222   0.63906   0.50996   Biso      1.000     C          -0.141338           
         C43       1.0000    0.00734   0.81755   0.54835   Biso      1.000     C          0.603854  
         C44       1.0000    0.57969   0.00717   0.70955   Biso      1.000     C          -0.002911           
         C45       1.0000    0.50996   0.00222   0.63906   Biso      1.000     C          -0.142089           
         C46       1.0000    0.54835   0.00734   0.81755   Biso      1.000     C          0.599799  
         C47       1.0000    0.36094   0.99778   0.49004   Biso      1.000     C          -0.141238           
         C48       1.0000    0.45165   0.18245   0.99266   Biso      1.000     C          0.599799  
         Cu1       1.0000    0.01975   0.59171   0.01975   Biso      1.000     Cu          0.875977  
         Cu2       1.0000    0.01975   0.01975   0.59171   Biso      1.000     Cu          0.875967  
         Cu3       1.0000    0.59171   0.01975   0.01975   Biso      1.000     Cu          0.843813  
         Cu4       1.0000    0.40829   0.98025   0.98025   Biso      1.000     Cu          0.843811  
         Cu5       1.0000    0.98025   0.98025   0.40829   Biso      1.000     Cu          0.875971  
         Cu6       1.0000    0.98025   0.40829   0.98025   Biso      1.000     Cu          0.875978  
         H1        1.0000    0.27220   0.27220   0.98420   Biso      1.000     H          0.135927  
         H2        1.0000    0.99990   0.44150   0.65980   Biso      1.000     H          0.127375  
         H3        1.0000    0.44150   0.65980   0.99990   Biso      1.000     H          0.127697  
         H4        1.0000    0.55850   0.00010   0.34020   Biso      1.000     H          0.127696  
         H5        1.0000    0.00010   0.34020   0.55850   Biso      1.000     H          0.127375  
         H6        1.0000    0.34020   0.55850   0.00010   Biso      1.000     H          0.12756   
         H7        1.0000    0.65980   0.99990   0.44150   Biso      1.000     H          0.127559  
         H8        1.0000    0.34020   0.00010   0.55850   Biso      1.000     H          0.127559  
         H9        1.0000    0.00010   0.55850   0.34020   Biso      1.000     H          0.127375  
         H10       1.0000    0.27220   0.98420   0.27220   Biso      1.000     H          0.135926  
         H11       1.0000    0.72780   0.72780   0.01580   Biso      1.000     H          0.135927  
         H12       1.0000    0.72780   0.01580   0.72780   Biso      1.000     H          0.135926  
         H13       1.0000    0.01580   0.72780   0.72780   Biso      1.000     H          0.135597  
         H14       1.0000    0.98420   0.27220   0.27220   Biso      1.000     H          0.135598  
         H15       1.0000    0.99990   0.65980   0.44150   Biso      1.000     H          0.127375  
         H16       1.0000    0.44150   0.99990   0.65980   Biso      1.000     H          0.127696  
         H17       1.0000    0.55850   0.34020   0.00010   Biso      1.000     H          0.127697  
         H18       1.0000    0.65980   0.44150   0.99990   Biso      1.000     H          0.12756   
         O1        1.0000    0.97698   0.38598   0.12421   Biso      1.000     O          -0.530292           
         O2        1.0000    0.99010   0.84150   0.45935   Biso      1.000     O          -0.534571           
         O3        1.0000    0.02302   0.87579   0.61402   Biso      1.000     O          -0.530289           
         O4        1.0000    0.45935   0.99010   0.84150   Biso      1.000     O          -0.527352           
         O5        1.0000    0.61402   0.02302   0.87579   Biso      1.000     O          -0.522852           
         O6        1.0000    0.54065   0.15850   0.00990   Biso      1.000     O          -0.527352           
         O7        1.0000    0.38598   0.12421   0.97698   Biso      1.000     O          -0.522852           
         O8        1.0000    0.15850   0.00990   0.54065   Biso      1.000     O          -0.534397           
         O9        1.0000    0.12421   0.97698   0.38598   Biso      1.000     O          -0.530196           
         O10       1.0000    0.00990   0.54065   0.15850   Biso      1.000     O          -0.534573           
         O11       1.0000    0.15850   0.54065   0.00990   Biso      1.000     O          -0.534399           
         O12       1.0000    0.02302   0.61402   0.87579   Biso      1.000     O          -0.530291           
         O13       1.0000    0.00990   0.15850   0.54065   Biso      1.000     O          -0.53457  
         O14       1.0000    0.97698   0.12421   0.38598   Biso      1.000     O          -0.53029  
         O15       1.0000    0.54065   0.00990   0.15850   Biso      1.000     O          -0.527352           
         O16       1.0000    0.38598   0.97698   0.12421   Biso      1.000     O          -0.522852           
         O17       1.0000    0.45935   0.84150   0.99010   Biso      1.000     O          -0.527352           
         O18       1.0000    0.61402   0.87579   0.02302   Biso      1.000     O          -0.522852           
         O19       1.0000    0.84150   0.99010   0.45935   Biso      1.000     O          -0.534398           
         O20       1.0000    0.87579   0.02302   0.61402   Biso      1.000     O          -0.530195           
         O21       1.0000    0.99010   0.45935   0.84150   Biso      1.000     O          -0.534574           
         O22       1.0000    0.87579   0.61402   0.02302   Biso      1.000     O          -0.530196           
         O23       1.0000    0.12421   0.38598   0.97698   Biso      1.000     O          -0.530197           
         O24       1.0000    0.84150   0.45935   0.99010   Biso      1.000     O          -0.5344 