data_image0
_cell_length_a       12.228
_cell_length_b       13.654
_cell_length_c       16.958
_cell_angle_alpha    77.04
_cell_angle_beta     71.34
_cell_angle_gamma    87.9

_symmetry_space_group_name_H-M    "P 1"
_symmetry_int_tables_number       1

loop_
  _symmetry_equiv_pos_as_xyz
  'x, y, z'

loop_
  _atom_site_label
  _atom_site_occupancy
  _atom_site_fract_x
  _atom_site_fract_y
  _atom_site_fract_z
  _atom_site_thermal_displace_type
  _atom_site_B_iso_or_equiv
  _atom_site_type_symbol
  _atom_site_charge
  C1       1.0000 0.64450  0.84560  0.89040  Biso   1.000  C  0.086421
  C2       1.0000 0.64930  0.94510  0.89180  Biso   1.000  C  -0.212195
  C3       1.0000 0.75530  0.99650  0.86880  Biso   1.000  C  0.156343
  C4       1.0000 0.85230  0.94270  0.84110  Biso   1.000  C  -0.203167
  C5       1.0000 0.83890  0.84350  0.84270  Biso   1.000  C  0.101396
  C6       1.0000 0.76760  0.10270  0.87140  Biso   1.000  C  -0.147648
  C7       1.0000 0.68400  0.15930  0.90590  Biso   1.000  C  -0.139526
  C8       1.0000 0.69560  0.26560  0.90700  Biso   1.000  C  0.149531
  C9       1.0000 0.80030  0.31670  0.89270  Biso   1.000  C  -0.202446
  C10      1.0000 0.80330  0.41530  0.88960  Biso   1.000  C  0.092651
  C11      1.0000 0.60940  0.42210  0.91920  Biso   1.000  C  0.113757
  C12      1.0000 0.59800  0.32280  0.92360  Biso   1.000  C  -0.191516
  C13      1.0000 0.75490  0.62030  0.02670  Biso   1.000  C  0.544235
  C14      1.0000 0.76820  0.62380  0.11020  Biso   1.000  C  -0.006293
  C15      1.0000 0.88030  0.62850  0.11570  Biso   1.000  C  -0.117180
  C16      1.0000 0.89380  0.63210  0.19140  Biso   1.000  C  -0.158074
  C17      1.0000 0.79860  0.63210  0.26420  Biso   1.000  C  0.087709
  C18      1.0000 0.68600  0.62410  0.25980  Biso   1.000  C  0.082034
  C19      1.0000 0.67550  0.62150  0.17930  Biso   1.000  C  -0.168887
  C20      1.0000 0.81110  0.63650  0.34400  Biso   1.000  C  -0.171645
  C21      1.0000 0.71790  0.63400  0.41470  Biso   1.000  C  -0.012087
  C22      1.0000 0.60550  0.62530  0.41040  Biso   1.000  C  -0.118249
  C23      1.0000 0.59110  0.61930  0.33470  Biso   1.000  C  -0.147782
  C24      1.0000 0.73110  0.63790  0.49950  Biso   1.000  C  0.543625
  C25      1.0000 0.54990  0.62800  0.80210  Biso   1.000  C  0.576622
  C26      1.0000 0.42940  0.63290  0.79820  Biso   1.000  C  -0.028339
  C27      1.0000 0.40830  0.62960  0.72450  Biso   1.000  C  -0.164264
  C28      1.0000 0.29430  0.63280  0.72000  Biso   1.000  C  0.085380
  C29      1.0000 0.20070  0.63860  0.79360  Biso   1.000  C  0.084897
  C30      1.0000 0.22420  0.64270  0.87040  Biso   1.000  C  -0.145846
  C31      1.0000 0.33500  0.64210  0.87210  Biso   1.000  C  -0.118412
  C32      1.0000 0.08630  0.63860  0.78990  Biso   1.000  C  -0.175870
  C33      1.0000 0.06710  0.63530  0.71540  Biso   1.000  C  -0.027802
  C34      1.0000 0.16050  0.63180  0.64150  Biso   1.000  C  -0.119925
  C35      1.0000 0.27040  0.62980  0.64450  Biso   1.000  C  -0.138438
  C36      1.0000 0.94510  0.63580  0.71300  Biso   1.000  C  0.584509
  C37      1.0000 0.65560  0.83230  0.65660  Biso   1.000  C  0.098300
  C38      1.0000 0.64350  0.93060  0.66490  Biso   1.000  C  -0.198992
  C39      1.0000 0.74100  0.99060  0.64320  Biso   1.000  C  0.159675
  C40      1.0000 0.84730  0.94790  0.61310  Biso   1.000  C  -0.212091
  C41      1.0000 0.85030  0.84720  0.60790  Biso   1.000  C  0.089312
  C42      1.0000 0.73210  0.09670  0.65150  Biso   1.000  C  -0.145260
  C43      1.0000 0.81370  0.16100  0.63130  Biso   1.000  C  -0.125344
  C44      1.0000 0.80210  0.26600  0.63980  Biso   1.000  C  0.153602
  C45      1.0000 0.70130  0.30400  0.68870  Biso   1.000  C  -0.210106
  C46      1.0000 0.69480  0.40420  0.69260  Biso   1.000  C  0.085874
  C47      1.0000 0.88060  0.43380  0.60620  Biso   1.000  C  0.099036
  C48      1.0000 0.89270  0.33370  0.59950  Biso   1.000  C  -0.192615
  C49      1.0000 0.35550  0.15440  0.10960  Biso   1.000  C  0.086451
  C50      1.0000 0.35070  0.05490  0.10820  Biso   1.000  C  -0.212162
  C51      1.0000 0.24470  0.00350  0.13120  Biso   1.000  C  0.156372
  C52      1.0000 0.14770  0.05730  0.15890  Biso   1.000  C  -0.203147
  C53      1.0000 0.16110  0.15650  0.15730  Biso   1.000  C  0.101411
  C54      1.0000 0.23240  0.89730  0.12860  Biso   1.000  C  -0.147624
  C55      1.0000 0.31600  0.84070  0.09410  Biso   1.000  C  -0.139472
  C56      1.0000 0.30440  0.73440  0.09300  Biso   1.000  C  0.149532
  C57      1.0000 0.19970  0.68330  0.10730  Biso   1.000  C  -0.202431
  C58      1.0000 0.19670  0.58470  0.11040  Biso   1.000  C  0.092671
  C59      1.0000 0.39060  0.57790  0.08080  Biso   1.000  C  0.113775
  C60      1.0000 0.40200  0.67720  0.07640  Biso   1.000  C  -0.191491
  C61      1.0000 0.24510  0.37970  0.97330  Biso   1.000  C  0.544241
  C62      1.0000 0.23180  0.37620  0.88980  Biso   1.000  C  -0.006284
  C63      1.0000 0.11970  0.37150  0.88430  Biso   1.000  C  -0.117161
  C64      1.0000 0.10620  0.36790  0.80860  Biso   1.000  C  -0.158055
  C65      1.0000 0.20140  0.36790  0.73580  Biso   1.000  C  0.087721
  C66      1.0000 0.31400  0.37590  0.74020  Biso   1.000  C  0.082046
  C67      1.0000 0.32450  0.37850  0.82070  Biso   1.000  C  -0.168867
  C68      1.0000 0.18890  0.36350  0.65600  Biso   1.000  C  -0.171631
  C69      1.0000 0.28210  0.36600  0.58530  Biso   1.000  C  -0.012075
  C70      1.0000 0.39450  0.37470  0.58960  Biso   1.000  C  -0.118230
  C71      1.0000 0.40890  0.38070  0.66530  Biso   1.000  C  -0.147770
  C72      1.0000 0.26890  0.36210  0.50050  Biso   1.000  C  0.543636
  C73      1.0000 0.45010  0.37200  0.19790  Biso   1.000  C  0.576636
  C74      1.0000 0.57060  0.36710  0.20180  Biso   1.000  C  -0.028346
  C75      1.0000 0.59170  0.37040  0.27550  Biso   1.000  C  -0.164258
  C76      1.0000 0.70570  0.36720  0.28000  Biso   1.000  C  0.085383
  C77      1.0000 0.79930  0.36140  0.20640  Biso   1.000  C  0.084904
  C78      1.0000 0.77580  0.35730  0.12960  Biso   1.000  C  -0.145843
  C79      1.0000 0.66500  0.35790  0.12790  Biso   1.000  C  -0.118400
  C80      1.0000 0.91370  0.36140  0.21010  Biso   1.000  C  -0.175874
  C81      1.0000 0.93290  0.36470  0.28460  Biso   1.000  C  -0.027803
  C82      1.0000 0.83950  0.36820  0.35850  Biso   1.000  C  -0.119916
  C83      1.0000 0.72960  0.37020  0.35550  Biso   1.000  C  -0.138430
  C84      1.0000 0.05490  0.36420  0.28700  Biso   1.000  C  0.584522
  C85      1.0000 0.34440  0.16770  0.34340  Biso   1.000  C  0.098314
  C86      1.0000 0.35650  0.06940  0.33510  Biso   1.000  C  -0.198985
  C87      1.0000 0.25900  0.00940  0.35680  Biso   1.000  C  0.159677
  C88      1.0000 0.15270  0.05210  0.38690  Biso   1.000  C  -0.212091
  C89      1.0000 0.14970  0.15280  0.39210  Biso   1.000  C  0.089323
  C90      1.0000 0.26790  0.90330  0.34850  Biso   1.000  C  -0.145260
  C91      1.0000 0.18630  0.83900  0.36870  Biso   1.000  C  -0.125341
  C92      1.0000 0.19790  0.73400  0.36020  Biso   1.000  C  0.153600
  C93      1.0000 0.29870  0.69600  0.31130  Biso   1.000  C  -0.210108
  C94      1.0000 0.30520  0.59580  0.30740  Biso   1.000  C  0.085877
  C95      1.0000 0.11940  0.56620  0.39380  Biso   1.000  C  0.099044
  C96      1.0000 0.10730  0.66630  0.40050  Biso   1.000  C  -0.192609
  Co1      1.0000 0.72538  0.63192  0.88435  Biso   1.000  Co  0.871827
  Co2      1.0000 0.76628  0.62956  0.63827  Biso   1.000  Co  0.867946
  Co3      1.0000 0.27462  0.36808  0.11565  Biso   1.000  Co  0.871940
  Co4      1.0000 0.23372  0.37044  0.36173  Biso   1.000  Co  0.867918
  H1       1.0000 0.57250  0.81350  0.90600  Biso   1.000  H  0.097204
  H2       1.0000 0.58120  0.97880  0.90820  Biso   1.000  H  0.121152
  H3       1.0000 0.92550  0.97350  0.82170  Biso   1.000  H  0.133831
  H4       1.0000 0.90560  0.80830  0.82490  Biso   1.000  H  0.090443
  H5       1.0000 0.84130  0.13270  0.84620  Biso   1.000  H  0.114393
  H6       1.0000 0.61060  0.12880  0.93200  Biso   1.000  H  0.109611
  H7       1.0000 0.86810  0.28160  0.88530  Biso   1.000  H  0.121287
  H8       1.0000 0.87460  0.44660  0.87870  Biso   1.000  H  0.093880
  H9       1.0000 0.54250  0.45860  0.92950  Biso   1.000  H  0.094930
  H10      1.0000 0.52510  0.29290  0.93750  Biso   1.000  H  0.131392
  H11      1.0000 0.94450  0.62920  0.06780  Biso   1.000  H  0.115753
  H12      1.0000 0.96790  0.63460  0.19500  Biso   1.000  H  0.106263
  H13      1.0000 0.60220  0.61810  0.17450  Biso   1.000  H  0.119765
  H14      1.0000 0.88480  0.64130  0.34780  Biso   1.000  H  0.120362
  H15      1.0000 0.54150  0.62360  0.45860  Biso   1.000  H  0.116570
  H16      1.0000 0.51680  0.61180  0.33270  Biso   1.000  H  0.109287
  H17      1.0000 0.47000  0.62510  0.67630  Biso   1.000  H  0.131011
  H18      1.0000 0.16330  0.64570  0.91950  Biso   1.000  H  0.119162
  H19      1.0000 0.34930  0.64780  0.92160  Biso   1.000  H  0.108282
  H20      1.0000 0.02420  0.64090  0.83840  Biso   1.000  H  0.133480
  H21      1.0000 0.14700  0.63070  0.59070  Biso   1.000  H  0.114546
  H22      1.0000 0.33130  0.62640  0.59550  Biso   1.000  H  0.116309
  H23      1.0000 0.58840  0.79350  0.67030  Biso   1.000  H  0.088032
  H24      1.0000 0.57060  0.95580  0.68490  Biso   1.000  H  0.134578
  H25      1.0000 0.91560  0.98610  0.59670  Biso   1.000  H  0.126716
  H26      1.0000 0.92190  0.81990  0.58760  Biso   1.000  H  0.094373
  H27      1.0000 0.65790  0.11840  0.67400  Biso   1.000  H  0.111675
  H28      1.0000 0.88820  0.13990  0.60910  Biso   1.000  H  0.112029
  H29      1.0000 0.63730  0.26080  0.71910  Biso   1.000  H  0.118498
  H30      1.0000 0.62650  0.42600  0.72630  Biso   1.000  H  0.096417
  H31      1.0000 0.94460  0.47760  0.57860  Biso   1.000  H  0.096091
  H32      1.0000 0.96290  0.31310  0.56730  Biso   1.000  H  0.139702
  H33      1.0000 0.42750  0.18650  0.09400  Biso   1.000  H  0.097221
  H34      1.0000 0.41880  0.02120  0.09180  Biso   1.000  H  0.121166
  H35      1.0000 0.07450  0.02650  0.17830  Biso   1.000  H  0.133890
  H36      1.0000 0.09440  0.19170  0.17510  Biso   1.000  H  0.090465
  H37      1.0000 0.15870  0.86730  0.15380  Biso   1.000  H  0.114418
  H38      1.0000 0.38940  0.87120  0.06800  Biso   1.000  H  0.109628
  H39      1.0000 0.13190  0.71840  0.11470  Biso   1.000  H  0.121300
  H40      1.0000 0.12540  0.55340  0.12130  Biso   1.000  H  0.093889
  H41      1.0000 0.45750  0.54140  0.07050  Biso   1.000  H  0.094943
  H42      1.0000 0.47490  0.70710  0.06250  Biso   1.000  H  0.131408
  H43      1.0000 0.05550  0.37080  0.93220  Biso   1.000  H  0.115766
  H44      1.0000 0.03210  0.36540  0.80500  Biso   1.000  H  0.106280
  H45      1.0000 0.39780  0.38190  0.82550  Biso   1.000  H  0.119777
  H46      1.0000 0.11520  0.35870  0.65220  Biso   1.000  H  0.120373
  H47      1.0000 0.45850  0.37640  0.54140  Biso   1.000  H  0.116581
  H48      1.0000 0.48320  0.38820  0.66730  Biso   1.000  H  0.109298
  H49      1.0000 0.53000  0.37490  0.32370  Biso   1.000  H  0.131011
  H50      1.0000 0.83670  0.35430  0.08050  Biso   1.000  H  0.119169
  H51      1.0000 0.65070  0.35220  0.07840  Biso   1.000  H  0.108290
  H52      1.0000 0.97580  0.35910  0.16160  Biso   1.000  H  0.133475
  H53      1.0000 0.85300  0.36930  0.40930  Biso   1.000  H  0.114548
  H54      1.0000 0.66870  0.37360  0.40450  Biso   1.000  H  0.116313
  H55      1.0000 0.41160  0.20650  0.32970  Biso   1.000  H  0.088042
  H56      1.0000 0.42940  0.04420  0.31510  Biso   1.000  H  0.134593
  H57      1.0000 0.08440  0.01390  0.40330  Biso   1.000  H  0.126735
  H58      1.0000 0.07810  0.18010  0.41240  Biso   1.000  H  0.094383
  H59      1.0000 0.34210  0.88160  0.32600  Biso   1.000  H  0.111688
  H60      1.0000 0.11180  0.86010  0.39090  Biso   1.000  H  0.112043
  H61      1.0000 0.36270  0.73920  0.28090  Biso   1.000  H  0.118503
  H62      1.0000 0.37350  0.57400  0.27370  Biso   1.000  H  0.096420
  H63      1.0000 0.05540  0.52240  0.42140  Biso   1.000  H  0.096095
  H64      1.0000 0.03710  0.68690  0.43270  Biso   1.000  H  0.139710
  N1       1.0000 0.73840  0.79310  0.86760  Biso   1.000  N  -0.234498
  N2       1.0000 0.70980  0.47190  0.90120  Biso   1.000  N  -0.243351
  N3       1.0000 0.75640  0.78840  0.63030  Biso   1.000  N  -0.234755
  N4       1.0000 0.78220  0.47070  0.65020  Biso   1.000  N  -0.234512
  N5       1.0000 0.26160  0.20690  0.13240  Biso   1.000  N  -0.234496
  N6       1.0000 0.29020  0.52810  0.09880  Biso   1.000  N  -0.243348
  N7       1.0000 0.24360  0.21160  0.36970  Biso   1.000  N  -0.234755
  N8       1.0000 0.21780  0.52930  0.34980  Biso   1.000  N  -0.234515
  O1       1.0000 0.84250  0.61740  0.96351  Biso   1.000  O  -0.540432
  O2       1.0000 0.65480  0.62390  0.01931  Biso   1.000  O  -0.546183
  O3       1.0000 0.64620  0.63270  0.56400  Biso   1.000  O  -0.524099
  O4       1.0000 0.83300  0.64780  0.50216  Biso   1.000  O  -0.555130
  O5       1.0000 0.56660  0.65030  0.86662  Biso   1.000  O  -0.543926
  O6       1.0000 0.62710  0.60020  0.74400  Biso   1.000  O  -0.570901
  O7       1.0000 0.86360  0.63990  0.77885  Biso   1.000  O  -0.584130
  O8       1.0000 0.93070  0.63270  0.64366  Biso   1.000  O  -0.540270
  O9       1.0000 0.15750  0.38260  0.03649  Biso   1.000  O  -0.540449
  O10      1.0000 0.34520  0.37610  0.98069  Biso   1.000  O  -0.546184
  O11      1.0000 0.35380  0.36730  0.43600  Biso   1.000  O  -0.524108
  O12      1.0000 0.16700  0.35220  0.49784  Biso   1.000  O  -0.555130
  O13      1.0000 0.43340  0.34970  0.13338  Biso   1.000  O  -0.543954
  O14      1.0000 0.37290  0.39980  0.25600  Biso   1.000  O  -0.570896
  O15      1.0000 0.13640  0.36010  0.22115  Biso   1.000  O  -0.584176
  O16      1.0000 0.06930  0.36730  0.35634  Biso   1.000  O  -0.540259
