data_image0
_cell_length_a       10.3881
_cell_length_b       11.0025
_cell_length_c       11.0101
_cell_angle_alpha    92.7
_cell_angle_beta     104.206
_cell_angle_gamma    104.337

_symmetry_space_group_name_H-M    "P 1"
_symmetry_int_tables_number       1

loop_
  _symmetry_equiv_pos_as_xyz
  'x, y, z'

loop_
  _atom_site_label
  _atom_site_occupancy
  _atom_site_fract_x
  _atom_site_fract_y
  _atom_site_fract_z
  _atom_site_thermal_displace_type
  _atom_site_B_iso_or_equiv
  _atom_site_type_symbol
  _atom_site_charge
  C1       1.0000 0.19310  0.92420  0.32000  Biso   1.000  C  0.087016
  C2       1.0000 0.80690  0.07580  0.68000  Biso   1.000  C  0.087015
  C3       1.0000 0.17870  0.84110  0.41010  Biso   1.000  C  -0.178222
  C4       1.0000 0.82130  0.15890  0.58990  Biso   1.000  C  -0.178222
  C5       1.0000 0.06070  0.81610  0.45310  Biso   1.000  C  0.114056
  C6       1.0000 0.93930  0.18390  0.54690  Biso   1.000  C  0.114056
  C7       1.0000 0.95710  0.87400  0.40590  Biso   1.000  C  -0.184367
  C8       1.0000 0.04290  0.12600  0.59410  Biso   1.000  C  -0.184366
  C9       1.0000 0.97140  0.95700  0.31570  Biso   1.000  C  0.071899
  C10      1.0000 0.02860  0.04300  0.68430  Biso   1.000  C  0.071898
  C11      1.0000 0.96850  0.32200  0.95710  Biso   1.000  C  0.077727
  C12      1.0000 0.03150  0.67800  0.04290  Biso   1.000  C  0.077728
  C13      1.0000 0.95560  0.40820  0.86960  Biso   1.000  C  -0.182832
  C14      1.0000 0.04440  0.59180  0.13040  Biso   1.000  C  -0.182833
  C15      1.0000 0.05940  0.44980  0.81010  Biso   1.000  C  0.107175
  C16      1.0000 0.94060  0.55020  0.18990  Biso   1.000  C  0.107175
  C17      1.0000 0.17610  0.40510  0.83810  Biso   1.000  C  -0.177383
  C18      1.0000 0.82390  0.59490  0.16190  Biso   1.000  C  -0.177383
  C19      1.0000 0.18900  0.31890  0.92560  Biso   1.000  C  0.089844
  C20      1.0000 0.81100  0.68110  0.07440  Biso   1.000  C  0.089844
  C21      1.0000 0.64190  0.02980  0.02860  Biso   1.000  C  -0.165237
  C22      1.0000 0.35810  0.97020  0.97140  Biso   1.000  C  -0.165237
  C23      1.0000 0.40120  0.41000  0.40830  Biso   1.000  C  -0.133449
  C24      1.0000 0.59880  0.59000  0.59170  Biso   1.000  C  -0.133450
  C25      1.0000 0.57700  0.09480  0.09420  Biso   1.000  C  0.329034
  C26      1.0000 0.42300  0.90520  0.90580  Biso   1.000  C  0.329034
  C27      1.0000 0.56180  0.93580  0.93720  Biso   1.000  C  -0.258521
  C28      1.0000 0.43820  0.06420  0.06280  Biso   1.000  C  -0.258520
  C29      1.0000 0.79860  0.06260  0.06190  Biso   1.000  C  0.572791
  C30      1.0000 0.20140  0.93740  0.93810  Biso   1.000  C  0.572791
  C31      1.0000 0.29700  0.31080  0.31100  Biso   1.000  C  0.602051
  C32      1.0000 0.70300  0.68920  0.68900  Biso   1.000  C  0.602051
  C33      1.0000 0.36600  0.48100  0.48100  Biso   1.000  C  0.280165
  C34      1.0000 0.63400  0.51900  0.51900  Biso   1.000  C  0.280165
  C35      1.0000 0.53490  0.42700  0.42500  Biso   1.000  C  -0.191831
  C36      1.0000 0.46510  0.57300  0.57500  Biso   1.000  C  -0.191831
  C37      1.0000 0.05900  0.71200  0.54400  Biso   1.000  C  0.094028
  C38      1.0000 0.94100  0.28800  0.45600  Biso   1.000  C  0.094027
  C39      1.0000 0.06300  0.54600  0.70800  Biso   1.000  C  0.128634
  C40      1.0000 0.93700  0.45400  0.29200  Biso   1.000  C  0.128634
  Cd1      1.0000 0.08723  0.13590  0.13555  Biso   1.000  Cd  0.869753
  Cd2      1.0000 0.91277  0.86410  0.86445  Biso   1.000  Cd  0.869754
  H1       1.0000 0.27380  0.94130  0.29060  Biso   1.000  H  0.116770
  H2       1.0000 0.72620  0.05870  0.70940  Biso   1.000  H  0.116770
  H3       1.0000 0.24960  0.80150  0.44240  Biso   1.000  H  0.133494
  H4       1.0000 0.75040  0.19850  0.55760  Biso   1.000  H  0.133493
  H5       1.0000 0.87640  0.85680  0.43520  Biso   1.000  H  0.134373
  H6       1.0000 0.12360  0.14320  0.56480  Biso   1.000  H  0.134373
  H7       1.0000 0.90060  0.99660  0.28350  Biso   1.000  H  0.108517
  H8       1.0000 0.09940  0.00340  0.71650  Biso   1.000  H  0.108517
  H9       1.0000 0.89750  0.29360  0.99780  Biso   1.000  H  0.108821
  H10      1.0000 0.10250  0.70640  0.00220  Biso   1.000  H  0.108821
  H11      1.0000 0.87580  0.43870  0.85050  Biso   1.000  H  0.140072
  H12      1.0000 0.12420  0.56130  0.14950  Biso   1.000  H  0.140072
  H13      1.0000 0.24710  0.43360  0.79750  Biso   1.000  H  0.131904
  H14      1.0000 0.75290  0.56640  0.20250  Biso   1.000  H  0.131903
  H15      1.0000 0.26880  0.28840  0.94480  Biso   1.000  H  0.114454
  H16      1.0000 0.73120  0.71160  0.05520  Biso   1.000  H  0.114454
  H17      1.0000 0.60560  0.88930  0.89330  Biso   1.000  H  0.130162
  H18      1.0000 0.39440  0.11070  0.10670  Biso   1.000  H  0.130162
  H19      1.0000 0.56590  0.37630  0.37240  Biso   1.000  H  0.115273
  H20      1.0000 0.43410  0.62370  0.62760  Biso   1.000  H  0.115274
  H21      1.0000 0.98340  0.68390  0.57970  Biso   1.000  H  0.094506
  H22      1.0000 0.01660  0.31610  0.42030  Biso   1.000  H  0.094506
  H23      1.0000 0.59130  0.22550  0.21600  Biso   1.000  H  0.332073
  H24      1.0000 0.40870  0.77450  0.78400  Biso   1.000  H  0.332073
  H25      1.0000 0.72970  0.20970  0.20430  Biso   1.000  H  0.310919
  H26      1.0000 0.27030  0.79030  0.79570  Biso   1.000  H  0.310919
  H27      1.0000 0.98970  0.58420  0.67840  Biso   1.000  H  0.100461
  H28      1.0000 0.01030  0.41580  0.32160  Biso   1.000  H  0.100462
  H29      1.0000 0.20460  0.36270  0.51910  Biso   1.000  H  0.307966
  H30      1.0000 0.79540  0.63730  0.48090  Biso   1.000  H  0.307966
  H31      1.0000 0.23680  0.49590  0.58500  Biso   1.000  H  0.303439
  H32      1.0000 0.76320  0.50410  0.41500  Biso   1.000  H  0.303439
  N1       1.0000 0.08950  0.98210  0.27280  Biso   1.000  N  -0.228606
  N2       1.0000 0.91050  0.01790  0.72720  Biso   1.000  N  -0.228606
  N3       1.0000 0.08520  0.27730  0.98510  Biso   1.000  N  -0.232554
  N4       1.0000 0.91480  0.72270  0.01490  Biso   1.000  N  -0.232554
  N5       1.0000 0.14800  0.56500  0.67600  Biso   1.000  N  -0.172704
  N6       1.0000 0.85200  0.43500  0.32400  Biso   1.000  N  -0.172704
  N7       1.0000 0.63900  0.18600  0.18000  Biso   1.000  N  -0.694436
  N8       1.0000 0.36100  0.81400  0.82000  Biso   1.000  N  -0.694435
  N9       1.0000 0.14400  0.67300  0.56600  Biso   1.000  N  -0.203645
  N10      1.0000 0.85600  0.32700  0.43400  Biso   1.000  N  -0.203645
  N11      1.0000 0.25500  0.44200  0.53500  Biso   1.000  N  -0.757590
  N12      1.0000 0.74500  0.55800  0.46500  Biso   1.000  N  -0.757590
  O1       1.0000 0.85430  0.99960  0.99950  Biso   1.000  O  -0.610747
  O2       1.0000 0.14570  0.00040  0.00050  Biso   1.000  O  -0.610746
  O3       1.0000 0.86970  0.14790  0.14650  Biso   1.000  O  -0.541820
  O4       1.0000 0.13030  0.85210  0.85350  Biso   1.000  O  -0.541820
  O5       1.0000 0.17160  0.29750  0.29850  Biso   1.000  O  -0.606256
  O6       1.0000 0.82840  0.70250  0.70150  Biso   1.000  O  -0.606256
  O7       1.0000 0.33310  0.24240  0.24190  Biso   1.000  O  -0.587178
  O8       1.0000 0.66690  0.75760  0.75810  Biso   1.000  O  -0.587178
