data_image0
_cell_length_a       26.3256
_cell_length_b       26.3256
_cell_length_c       26.3256
_cell_angle_alpha    60
_cell_angle_beta     60
_cell_angle_gamma    60

_symmetry_space_group_name_H-M    "P 1"
_symmetry_int_tables_number       1

loop_
  _symmetry_equiv_pos_as_xyz
  'x, y, z'

loop_
  _atom_site_label
  _atom_site_occupancy
  _atom_site_fract_x
  _atom_site_fract_y
  _atom_site_fract_z
  _atom_site_thermal_displace_type
  _atom_site_B_iso_or_equiv
  _atom_site_type_symbol
  _atom_site_charge
  C1       1.0000 0.10458  0.05192  0.31982  Biso   1.000  C  -0.024082
  C2       1.0000 0.08378  0.11216  0.28084  Biso   1.000  C  -0.146542
  C3       1.0000 0.12183  0.13277  0.22041  Biso   1.000  C  0.019545
  C4       1.0000 0.18147  0.09217  0.19733  Biso   1.000  C  0.041711
  C5       1.0000 0.20219  0.03067  0.23629  Biso   1.000  C  -0.141560
  C6       1.0000 0.16348  0.01124  0.29732  Biso   1.000  C  -0.095459
  C7       1.0000 0.06480  0.03040  0.38440  Biso   1.000  C  0.611963
  C8       1.0000 0.05192  0.10458  0.52368  Biso   1.000  C  -0.024007
  C9       1.0000 0.11216  0.08378  0.52322  Biso   1.000  C  -0.146523
  C10      1.0000 0.13277  0.12183  0.52499  Biso   1.000  C  0.019510
  C11      1.0000 0.09217  0.18147  0.52903  Biso   1.000  C  0.041761
  C12      1.0000 0.03067  0.20219  0.53085  Biso   1.000  C  -0.141429
  C13      1.0000 0.01124  0.16348  0.52796  Biso   1.000  C  -0.095338
  C14      1.0000 0.03040  0.06480  0.52040  Biso   1.000  C  0.611957
  C15      1.0000 0.31982  0.52368  0.10458  Biso   1.000  C  -0.024013
  C16      1.0000 0.28084  0.52322  0.08378  Biso   1.000  C  -0.146558
  C17      1.0000 0.22041  0.52499  0.12183  Biso   1.000  C  0.019535
  C18      1.0000 0.19733  0.52903  0.18147  Biso   1.000  C  0.041732
  C19      1.0000 0.23629  0.53085  0.20219  Biso   1.000  C  -0.141460
  C20      1.0000 0.29732  0.52796  0.16348  Biso   1.000  C  -0.095403
  C21      1.0000 0.38440  0.52040  0.06480  Biso   1.000  C  0.611959
  C22      1.0000 0.52368  0.31982  0.05192  Biso   1.000  C  -0.024025
  C23      1.0000 0.52322  0.28084  0.11216  Biso   1.000  C  -0.146504
  C24      1.0000 0.52499  0.22041  0.13277  Biso   1.000  C  0.019500
  C25      1.0000 0.52903  0.19733  0.09217  Biso   1.000  C  0.041711
  C26      1.0000 0.53085  0.23629  0.03067  Biso   1.000  C  -0.141573
  C27      1.0000 0.52796  0.29732  0.01124  Biso   1.000  C  -0.095392
  C28      1.0000 0.52040  0.38440  0.03040  Biso   1.000  C  0.611958
  C29      1.0000 0.10458  0.31982  0.52368  Biso   1.000  C  -0.020340
  C30      1.0000 0.08378  0.28084  0.52322  Biso   1.000  C  -0.147116
  C31      1.0000 0.12183  0.22041  0.52499  Biso   1.000  C  0.019803
  C32      1.0000 0.18147  0.19733  0.52903  Biso   1.000  C  0.041776
  C33      1.0000 0.20219  0.23629  0.53085  Biso   1.000  C  -0.141235
  C34      1.0000 0.16348  0.29732  0.52796  Biso   1.000  C  -0.096093
  C35      1.0000 0.06480  0.38440  0.52040  Biso   1.000  C  0.610627
  C36      1.0000 0.05192  0.52368  0.31982  Biso   1.000  C  -0.020411
  C37      1.0000 0.11216  0.52322  0.28084  Biso   1.000  C  -0.147115
  C38      1.0000 0.13277  0.52499  0.22041  Biso   1.000  C  0.019803
  C39      1.0000 0.09217  0.52903  0.19733  Biso   1.000  C  0.041732
  C40      1.0000 0.03067  0.53085  0.23629  Biso   1.000  C  -0.141385
  C41      1.0000 0.01124  0.52796  0.29732  Biso   1.000  C  -0.096173
  C42      1.0000 0.03040  0.52040  0.38440  Biso   1.000  C  0.610626
  C43      1.0000 0.31982  0.10458  0.05192  Biso   1.000  C  -0.024063
  C44      1.0000 0.28084  0.08378  0.11216  Biso   1.000  C  -0.146546
  C45      1.0000 0.22041  0.12183  0.13277  Biso   1.000  C  0.019531
  C46      1.0000 0.19733  0.18147  0.09217  Biso   1.000  C  0.041704
  C47      1.0000 0.23629  0.20219  0.03067  Biso   1.000  C  -0.141574
  C48      1.0000 0.29732  0.16348  0.01124  Biso   1.000  C  -0.095448
  C49      1.0000 0.38440  0.06480  0.03040  Biso   1.000  C  0.611964
  C50      1.0000 0.52368  0.05192  0.10458  Biso   1.000  C  -0.024013
  C51      1.0000 0.52322  0.11216  0.08378  Biso   1.000  C  -0.146554
  C52      1.0000 0.52499  0.13277  0.12183  Biso   1.000  C  0.019547
  C53      1.0000 0.52903  0.09217  0.18147  Biso   1.000  C  0.041737
  C54      1.0000 0.53085  0.03067  0.20219  Biso   1.000  C  -0.141456
  C55      1.0000 0.52796  0.01124  0.16348  Biso   1.000  C  -0.095405
  C56      1.0000 0.52040  0.03040  0.06480  Biso   1.000  C  0.611963
  C57      1.0000 0.10458  0.52368  0.05192  Biso   1.000  C  -0.024052
  C58      1.0000 0.08378  0.52322  0.11216  Biso   1.000  C  -0.146522
  C59      1.0000 0.12183  0.52499  0.13277  Biso   1.000  C  0.019496
  C60      1.0000 0.18147  0.52903  0.09217  Biso   1.000  C  0.041713
  C61      1.0000 0.20219  0.53085  0.03067  Biso   1.000  C  -0.141577
  C62      1.0000 0.16348  0.52796  0.01124  Biso   1.000  C  -0.095407
  C63      1.0000 0.06480  0.52040  0.03040  Biso   1.000  C  0.611960
  C64      1.0000 0.05192  0.31982  0.10458  Biso   1.000  C  -0.024052
  C65      1.0000 0.11216  0.28084  0.08378  Biso   1.000  C  -0.146540
  C66      1.0000 0.13277  0.22041  0.12183  Biso   1.000  C  0.019536
  C67      1.0000 0.09217  0.19733  0.18147  Biso   1.000  C  0.041694
  C68      1.0000 0.03067  0.23629  0.20219  Biso   1.000  C  -0.141571
  C69      1.0000 0.01124  0.29732  0.16348  Biso   1.000  C  -0.095448
  C70      1.0000 0.03040  0.38440  0.06480  Biso   1.000  C  0.611967
  C71      1.0000 0.31982  0.05192  0.52368  Biso   1.000  C  -0.020378
  C72      1.0000 0.28084  0.11216  0.52322  Biso   1.000  C  -0.147074
  C73      1.0000 0.22041  0.13277  0.52499  Biso   1.000  C  0.019776
  C74      1.0000 0.19733  0.09217  0.52903  Biso   1.000  C  0.041748
  C75      1.0000 0.23629  0.03067  0.53085  Biso   1.000  C  -0.141357
  C76      1.0000 0.29732  0.01124  0.52796  Biso   1.000  C  -0.096102
  C77      1.0000 0.38440  0.03040  0.52040  Biso   1.000  C  0.610621
  C78      1.0000 0.52368  0.10458  0.31982  Biso   1.000  C  -0.020408
  C79      1.0000 0.52322  0.08378  0.28084  Biso   1.000  C  -0.147110
  C80      1.0000 0.52499  0.12183  0.22041  Biso   1.000  C  0.019809
  C81      1.0000 0.52903  0.18147  0.19733  Biso   1.000  C  0.041753
  C82      1.0000 0.53085  0.20219  0.23629  Biso   1.000  C  -0.141342
  C83      1.0000 0.52796  0.16348  0.29732  Biso   1.000  C  -0.096163
  C84      1.0000 0.52040  0.06480  0.38440  Biso   1.000  C  0.610627
  C85      1.0000 0.94808  0.89542  0.68018  Biso   1.000  C  -0.024083
  C86      1.0000 0.88784  0.91622  0.71916  Biso   1.000  C  -0.146544
  C87      1.0000 0.86723  0.87817  0.77959  Biso   1.000  C  0.019544
  C88      1.0000 0.90783  0.81853  0.80267  Biso   1.000  C  0.041711
  C89      1.0000 0.96933  0.79781  0.76371  Biso   1.000  C  -0.141561
  C90      1.0000 0.98876  0.83652  0.70268  Biso   1.000  C  -0.095456
  C91      1.0000 0.96960  0.93520  0.61560  Biso   1.000  C  0.611962
  C92      1.0000 0.89542  0.94808  0.47632  Biso   1.000  C  -0.023998
  C93      1.0000 0.91622  0.88784  0.47678  Biso   1.000  C  -0.146517
  C94      1.0000 0.87817  0.86723  0.47501  Biso   1.000  C  0.019517
  C95      1.0000 0.81853  0.90783  0.47097  Biso   1.000  C  0.041758
  C96      1.0000 0.79781  0.96933  0.46915  Biso   1.000  C  -0.141430
  C97      1.0000 0.83652  0.98876  0.47204  Biso   1.000  C  -0.095337
  C98      1.0000 0.93520  0.96960  0.47960  Biso   1.000  C  0.611958
  C99      1.0000 0.47632  0.68018  0.89542  Biso   1.000  C  -0.023995
  C100     1.0000 0.47678  0.71916  0.91622  Biso   1.000  C  -0.146547
  C101     1.0000 0.47501  0.77959  0.87817  Biso   1.000  C  0.019542
  C102     1.0000 0.47097  0.80267  0.81853  Biso   1.000  C  0.041736
  C103     1.0000 0.46915  0.76371  0.79781  Biso   1.000  C  -0.141449
  C104     1.0000 0.47204  0.70268  0.83652  Biso   1.000  C  -0.095393
  C105     1.0000 0.47960  0.61560  0.93520  Biso   1.000  C  0.611962
  C106     1.0000 0.68018  0.47632  0.94808  Biso   1.000  C  -0.024041
  C107     1.0000 0.71916  0.47678  0.88784  Biso   1.000  C  -0.146515
  C108     1.0000 0.77959  0.47501  0.86723  Biso   1.000  C  0.019495
  C109     1.0000 0.80267  0.47097  0.90783  Biso   1.000  C  0.041703
  C110     1.0000 0.76371  0.46915  0.96933  Biso   1.000  C  -0.141592
  C111     1.0000 0.70268  0.47204  0.98876  Biso   1.000  C  -0.095403
  C112     1.0000 0.61560  0.47960  0.96960  Biso   1.000  C  0.611955
  C113     1.0000 0.68018  0.89542  0.47632  Biso   1.000  C  -0.020346
  C114     1.0000 0.71916  0.91622  0.47678  Biso   1.000  C  -0.147112
  C115     1.0000 0.77959  0.87817  0.47501  Biso   1.000  C  0.019812
  C116     1.0000 0.80267  0.81853  0.47097  Biso   1.000  C  0.041787
  C117     1.0000 0.76371  0.79781  0.46915  Biso   1.000  C  -0.141216
  C118     1.0000 0.70268  0.83652  0.47204  Biso   1.000  C  -0.096091
  C119     1.0000 0.61560  0.93520  0.47960  Biso   1.000  C  0.610626
  C120     1.0000 0.47632  0.94808  0.68018  Biso   1.000  C  -0.020406
  C121     1.0000 0.47678  0.88784  0.71916  Biso   1.000  C  -0.147103
  C122     1.0000 0.47501  0.86723  0.77959  Biso   1.000  C  0.019815
  C123     1.0000 0.47097  0.90783  0.80267  Biso   1.000  C  0.041744
  C124     1.0000 0.46915  0.96933  0.76371  Biso   1.000  C  -0.141361
  C125     1.0000 0.47204  0.98876  0.70268  Biso   1.000  C  -0.096170
  C126     1.0000 0.47960  0.96960  0.61560  Biso   1.000  C  0.610627
  C127     1.0000 0.89542  0.68018  0.94808  Biso   1.000  C  -0.024056
  C128     1.0000 0.91622  0.71916  0.88784  Biso   1.000  C  -0.146540
  C129     1.0000 0.87817  0.77959  0.86723  Biso   1.000  C  0.019530
  C130     1.0000 0.81853  0.80267  0.90783  Biso   1.000  C  0.041702
  C131     1.0000 0.79781  0.76371  0.96933  Biso   1.000  C  -0.141571
  C132     1.0000 0.83652  0.70268  0.98876  Biso   1.000  C  -0.095447
  C133     1.0000 0.93520  0.61560  0.96960  Biso   1.000  C  0.611967
  C134     1.0000 0.94808  0.47632  0.89542  Biso   1.000  C  -0.024022
  C135     1.0000 0.88784  0.47678  0.91622  Biso   1.000  C  -0.146560
  C136     1.0000 0.86723  0.47501  0.87817  Biso   1.000  C  0.019540
  C137     1.0000 0.90783  0.47097  0.81853  Biso   1.000  C  0.041733
  C138     1.0000 0.96933  0.46915  0.79781  Biso   1.000  C  -0.141464
  C139     1.0000 0.98876  0.47204  0.83652  Biso   1.000  C  -0.095410
  C140     1.0000 0.96960  0.47960  0.93520  Biso   1.000  C  0.611963
  C141     1.0000 0.47632  0.89542  0.94808  Biso   1.000  C  -0.024042
  C142     1.0000 0.47678  0.91622  0.88784  Biso   1.000  C  -0.146517
  C143     1.0000 0.47501  0.87817  0.86723  Biso   1.000  C  0.019500
  C144     1.0000 0.47097  0.81853  0.90783  Biso   1.000  C  0.041721
  C145     1.0000 0.46915  0.79781  0.96933  Biso   1.000  C  -0.141561
  C146     1.0000 0.47204  0.83652  0.98876  Biso   1.000  C  -0.095396
  C147     1.0000 0.47960  0.93520  0.96960  Biso   1.000  C  0.611959
  C148     1.0000 0.68018  0.94808  0.89542  Biso   1.000  C  -0.024060
  C149     1.0000 0.71916  0.88784  0.91622  Biso   1.000  C  -0.146547
  C150     1.0000 0.77959  0.86723  0.87817  Biso   1.000  C  0.019536
  C151     1.0000 0.80267  0.90783  0.81853  Biso   1.000  C  0.041693
  C152     1.0000 0.76371  0.96933  0.79781  Biso   1.000  C  -0.141575
  C153     1.0000 0.70268  0.98876  0.83652  Biso   1.000  C  -0.095453
  C154     1.0000 0.61560  0.96960  0.93520  Biso   1.000  C  0.611964
  C155     1.0000 0.94808  0.68018  0.47632  Biso   1.000  C  -0.020358
  C156     1.0000 0.88784  0.71916  0.47678  Biso   1.000  C  -0.147068
  C157     1.0000 0.86723  0.77959  0.47501  Biso   1.000  C  0.019771
  C158     1.0000 0.90783  0.80267  0.47097  Biso   1.000  C  0.041746
  C159     1.0000 0.96933  0.76371  0.46915  Biso   1.000  C  -0.141354
  C160     1.0000 0.98876  0.70268  0.47204  Biso   1.000  C  -0.096086
  C161     1.0000 0.96960  0.61560  0.47960  Biso   1.000  C  0.610623
  C162     1.0000 0.89542  0.47632  0.68018  Biso   1.000  C  -0.020410
  C163     1.0000 0.91622  0.47678  0.71916  Biso   1.000  C  -0.147120
  C164     1.0000 0.87817  0.47501  0.77959  Biso   1.000  C  0.019798
  C165     1.0000 0.81853  0.47097  0.80267  Biso   1.000  C  0.041741
  C166     1.0000 0.79781  0.46915  0.76371  Biso   1.000  C  -0.141365
  C167     1.0000 0.83652  0.47204  0.70268  Biso   1.000  C  -0.096168
  C168     1.0000 0.93520  0.47960  0.61560  Biso   1.000  C  0.610627
  Cu1      1.0000 0.04840  0.95160  0.50000  Biso   1.000  Cu  0.763346
  Cu2      1.0000 0.95160  0.04840  0.50000  Biso   1.000  Cu  0.763333
  Cu3      1.0000 0.50000  0.50000  0.04840  Biso   1.000  Cu  0.763299
  Cu4      1.0000 0.50000  0.50000  0.95160  Biso   1.000  Cu  0.763288
  Cu5      1.0000 0.04840  0.50000  0.50000  Biso   1.000  Cu  0.739536
  Cu6      1.0000 0.95160  0.50000  0.50000  Biso   1.000  Cu  0.739547
  Cu7      1.0000 0.50000  0.04840  0.95160  Biso   1.000  Cu  0.763293
  Cu8      1.0000 0.50000  0.95160  0.04840  Biso   1.000  Cu  0.763296
  Cu9      1.0000 0.04840  0.50000  0.95160  Biso   1.000  Cu  0.763323
  Cu10     1.0000 0.95160  0.50000  0.04840  Biso   1.000  Cu  0.763326
  Cu11     1.0000 0.50000  0.95160  0.50000  Biso   1.000  Cu  0.739557
  Cu12     1.0000 0.50000  0.04840  0.50000  Biso   1.000  Cu  0.739566
  H1       1.0000 0.04320  0.13940  0.29580  Biso   1.000  H  0.122930
  H2       1.0000 0.24200  0.00280  0.22120  Biso   1.000  H  0.123997
  H3       1.0000 0.17730  0.96990  0.32390  Biso   1.000  H  0.122697
  H4       1.0000 0.13940  0.04320  0.52160  Biso   1.000  H  0.122942
  H5       1.0000 0.00280  0.24200  0.53400  Biso   1.000  H  0.124127
  H6       1.0000 0.96990  0.17730  0.52890  Biso   1.000  H  0.122718
  H7       1.0000 0.29580  0.52160  0.04320  Biso   1.000  H  0.122928
  H8       1.0000 0.22120  0.53400  0.24200  Biso   1.000  H  0.124106
  H9       1.0000 0.32390  0.52890  0.17730  Biso   1.000  H  0.122701
  H10      1.0000 0.52160  0.29580  0.13940  Biso   1.000  H  0.122932
  H11      1.0000 0.53400  0.22120  0.00280  Biso   1.000  H  0.123986
  H12      1.0000 0.52890  0.32390  0.96990  Biso   1.000  H  0.122687
  H13      1.0000 0.04320  0.29580  0.52160  Biso   1.000  H  0.123190
  H14      1.0000 0.24200  0.22120  0.53400  Biso   1.000  H  0.124269
  H15      1.0000 0.17730  0.32390  0.52890  Biso   1.000  H  0.123011
  H16      1.0000 0.13940  0.52160  0.29580  Biso   1.000  H  0.123178
  H17      1.0000 0.00280  0.53400  0.22120  Biso   1.000  H  0.124123
  H18      1.0000 0.96990  0.52890  0.32390  Biso   1.000  H  0.122937
  H19      1.0000 0.29580  0.04320  0.13940  Biso   1.000  H  0.122928
  H20      1.0000 0.22120  0.24200  0.00280  Biso   1.000  H  0.124004
  H21      1.0000 0.32390  0.17730  0.96990  Biso   1.000  H  0.122685
  H22      1.0000 0.52160  0.13940  0.04320  Biso   1.000  H  0.122938
  H23      1.0000 0.53400  0.00280  0.24200  Biso   1.000  H  0.124115
  H24      1.0000 0.52890  0.96990  0.17730  Biso   1.000  H  0.122707
  H25      1.0000 0.04320  0.52160  0.13940  Biso   1.000  H  0.122925
  H26      1.0000 0.24200  0.53400  0.00280  Biso   1.000  H  0.123975
  H27      1.0000 0.17730  0.52890  0.96990  Biso   1.000  H  0.122666
  H28      1.0000 0.13940  0.29580  0.04320  Biso   1.000  H  0.122930
  H29      1.0000 0.00280  0.22120  0.24200  Biso   1.000  H  0.123995
  H30      1.0000 0.96990  0.32390  0.17730  Biso   1.000  H  0.122706
  H31      1.0000 0.29580  0.13940  0.52160  Biso   1.000  H  0.123187
  H32      1.0000 0.22120  0.00280  0.53400  Biso   1.000  H  0.124132
  H33      1.0000 0.32390  0.96990  0.52890  Biso   1.000  H  0.122967
  H34      1.0000 0.52160  0.04320  0.29580  Biso   1.000  H  0.123174
  H35      1.0000 0.53400  0.24200  0.22120  Biso   1.000  H  0.124148
  H36      1.0000 0.52890  0.17730  0.32390  Biso   1.000  H  0.122981
  H37      1.0000 0.86060  0.95680  0.70420  Biso   1.000  H  0.122929
  H38      1.0000 0.99720  0.75800  0.77880  Biso   1.000  H  0.124007
  H39      1.0000 0.03010  0.82270  0.67610  Biso   1.000  H  0.122690
  H40      1.0000 0.95680  0.86060  0.47840  Biso   1.000  H  0.122948
  H41      1.0000 0.75800  0.99720  0.46600  Biso   1.000  H  0.124125
  H42      1.0000 0.82270  0.03010  0.47110  Biso   1.000  H  0.122720
  H43      1.0000 0.47840  0.70420  0.95680  Biso   1.000  H  0.122936
  H44      1.0000 0.46600  0.77880  0.75800  Biso   1.000  H  0.124121
  H45      1.0000 0.47110  0.67610  0.82270  Biso   1.000  H  0.122726
  H46      1.0000 0.70420  0.47840  0.86060  Biso   1.000  H  0.122927
  H47      1.0000 0.77880  0.46600  0.99720  Biso   1.000  H  0.123972
  H48      1.0000 0.67610  0.47110  0.03010  Biso   1.000  H  0.122648
  H49      1.0000 0.70420  0.95680  0.47840  Biso   1.000  H  0.123191
  H50      1.0000 0.77880  0.75800  0.46600  Biso   1.000  H  0.124282
  H51      1.0000 0.67610  0.82270  0.47110  Biso   1.000  H  0.123021
  H52      1.0000 0.47840  0.86060  0.70420  Biso   1.000  H  0.123183
  H53      1.0000 0.46600  0.99720  0.77880  Biso   1.000  H  0.124135
  H54      1.0000 0.47110  0.03010  0.67610  Biso   1.000  H  0.122972
  H55      1.0000 0.95680  0.70420  0.86060  Biso   1.000  H  0.122930
  H56      1.0000 0.75800  0.77880  0.99720  Biso   1.000  H  0.123992
  H57      1.0000 0.82270  0.67610  0.03010  Biso   1.000  H  0.122704
  H58      1.0000 0.86060  0.47840  0.95680  Biso   1.000  H  0.122934
  H59      1.0000 0.99720  0.46600  0.75800  Biso   1.000  H  0.124105
  H60      1.0000 0.03010  0.47110  0.82270  Biso   1.000  H  0.122701
  H61      1.0000 0.47840  0.95680  0.86060  Biso   1.000  H  0.122927
  H62      1.0000 0.46600  0.75800  0.99720  Biso   1.000  H  0.123995
  H63      1.0000 0.47110  0.82270  0.03010  Biso   1.000  H  0.122680
  H64      1.0000 0.70420  0.86060  0.95680  Biso   1.000  H  0.122928
  H65      1.0000 0.77880  0.99720  0.75800  Biso   1.000  H  0.123991
  H66      1.0000 0.67610  0.03010  0.82270  Biso   1.000  H  0.122690
  H67      1.0000 0.86060  0.70420  0.47840  Biso   1.000  H  0.123191
  H68      1.0000 0.99720  0.77880  0.46600  Biso   1.000  H  0.124141
  H69      1.0000 0.03010  0.67610  0.47110  Biso   1.000  H  0.122981
  H70      1.0000 0.95680  0.47840  0.70420  Biso   1.000  H  0.123170
  H71      1.0000 0.75800  0.46600  0.77880  Biso   1.000  H  0.124128
  H72      1.0000 0.82270  0.47110  0.67610  Biso   1.000  H  0.122958
  O1       1.0000 0.09391  0.97833  0.41191  Biso   1.000  O  -0.495078
  O2       1.0000 0.01395  0.06715  0.40257  Biso   1.000  O  -0.521506
  O3       1.0000 0.97833  0.09391  0.51585  Biso   1.000  O  -0.495063
  O4       1.0000 0.06715  0.01395  0.51633  Biso   1.000  O  -0.521504
  O5       1.0000 0.41191  0.51585  0.09391  Biso   1.000  O  -0.495114
  O6       1.0000 0.40257  0.51633  0.01395  Biso   1.000  O  -0.521566
  O7       1.0000 0.51585  0.41191  0.97833  Biso   1.000  O  -0.495153
  O8       1.0000 0.51633  0.40257  0.06715  Biso   1.000  O  -0.521548
  O9       1.0000 0.09391  0.41191  0.51585  Biso   1.000  O  -0.489963
  O10      1.0000 0.01395  0.40257  0.51633  Biso   1.000  O  -0.518140
  O11      1.0000 0.97833  0.51585  0.41191  Biso   1.000  O  -0.490004
  O12      1.0000 0.06715  0.51633  0.40257  Biso   1.000  O  -0.518143
  O13      1.0000 0.41191  0.09391  0.97833  Biso   1.000  O  -0.495105
  O14      1.0000 0.40257  0.01395  0.06715  Biso   1.000  O  -0.521526
  O15      1.0000 0.51585  0.97833  0.09391  Biso   1.000  O  -0.495085
  O16      1.0000 0.51633  0.06715  0.01395  Biso   1.000  O  -0.521529
  O17      1.0000 0.09391  0.51585  0.97833  Biso   1.000  O  -0.495116
  O18      1.0000 0.01395  0.51633  0.06715  Biso   1.000  O  -0.521528
  O19      1.0000 0.97833  0.41191  0.09391  Biso   1.000  O  -0.495107
  O20      1.0000 0.06715  0.40257  0.01395  Biso   1.000  O  -0.521524
  O21      1.0000 0.41191  0.97833  0.51585  Biso   1.000  O  -0.489986
  O22      1.0000 0.40257  0.06715  0.51633  Biso   1.000  O  -0.518111
  O23      1.0000 0.51585  0.09391  0.41191  Biso   1.000  O  -0.489969
  O24      1.0000 0.51633  0.01395  0.40257  Biso   1.000  O  -0.518129
  O25      1.0000 0.02167  0.90609  0.58809  Biso   1.000  O  -0.495078
  O26      1.0000 0.93285  0.98605  0.59743  Biso   1.000  O  -0.521506
  O27      1.0000 0.90609  0.02167  0.48415  Biso   1.000  O  -0.495066
  O28      1.0000 0.98605  0.93285  0.48367  Biso   1.000  O  -0.521506
  O29      1.0000 0.48415  0.58809  0.90609  Biso   1.000  O  -0.495111
  O30      1.0000 0.48367  0.59743  0.98605  Biso   1.000  O  -0.521562
  O31      1.0000 0.58809  0.48415  0.02167  Biso   1.000  O  -0.495157
  O32      1.0000 0.59743  0.48367  0.93285  Biso   1.000  O  -0.521553
  O33      1.0000 0.58809  0.90609  0.48415  Biso   1.000  O  -0.489948
  O34      1.0000 0.59743  0.98605  0.48367  Biso   1.000  O  -0.518129
  O35      1.0000 0.48415  0.02167  0.58809  Biso   1.000  O  -0.489984
  O36      1.0000 0.48367  0.93285  0.59743  Biso   1.000  O  -0.518121
  O37      1.0000 0.90609  0.58809  0.02167  Biso   1.000  O  -0.495107
  O38      1.0000 0.98605  0.59743  0.93285  Biso   1.000  O  -0.521525
  O39      1.0000 0.02167  0.48415  0.90609  Biso   1.000  O  -0.495089
  O40      1.0000 0.93285  0.48367  0.98605  Biso   1.000  O  -0.521534
  O41      1.0000 0.48415  0.90609  0.02167  Biso   1.000  O  -0.495112
  O42      1.0000 0.48367  0.98605  0.93285  Biso   1.000  O  -0.521525
  O43      1.0000 0.58809  0.02167  0.90609  Biso   1.000  O  -0.495104
  O44      1.0000 0.59743  0.93285  0.98605  Biso   1.000  O  -0.521525
  O45      1.0000 0.02167  0.58809  0.48415  Biso   1.000  O  -0.490007
  O46      1.0000 0.93285  0.59743  0.48367  Biso   1.000  O  -0.518130
  O47      1.0000 0.90609  0.48415  0.58809  Biso   1.000  O  -0.489990
  O48      1.0000 0.98605  0.48367  0.59743  Biso   1.000  O  -0.518152
