
##########################################################################
#               Crystallographic Information Format file
#               Produced by PyCifRW module
#
#  This is a CIF file.  CIF has been adopted by the International
#  Union of Crystallography as the standard for data archiving and
#  transmission.
#
#  For information on this file format, follow the CIF links at
#  http://www.iucr.org
##########################################################################

data_image0

_cell_length_a                          13.838
_cell_length_b                          12.784
_cell_length_c                          16.885
_cell_angle_alpha                       90
_cell_angle_beta                        90
_cell_angle_gamma                       90
_symmetry_space_group_name_H-M          'P 1'
_symmetry_int_tables_number             1
loop_
  _symmetry_equiv_pos_as_xyz
         'x, y, z' 
loop_
  _atom_site_label
  _atom_site_occupancy
  _atom_site_fract_x
  _atom_site_fract_y
  _atom_site_fract_z
  _atom_site_thermal_displace_type
  _atom_site_B_iso_or_equiv
  _atom_site_type_symbol
  _atom_site_charge
         C1        1.0000    0.22010   0.97860   0.97780   Biso      1.000     C          0.543308  
         C2        1.0000    0.00620   0.07420   0.27790   Biso      1.000     C          0.470812  
         C3        1.0000    0.95190   0.79470   0.41240   Biso      1.000     C          0.569401  
         C4        1.0000    0.08220   0.77530   0.47660   Biso      1.000     C          0.555512  
         C5        1.0000    0.50620   0.07420   0.22210   Biso      1.000     C          0.470812  
         C6        1.0000    0.68800   0.02430   0.40540   Biso      1.000     C          0.151585  
         C7        1.0000    0.08220   0.72470   0.97660   Biso      1.000     C          0.555512  
         C8        1.0000    0.95190   0.70530   0.91240   Biso      1.000     C          0.569401  
         C9        1.0000    0.00620   0.42580   0.77790   Biso      1.000     C          0.470811  
         C10       1.0000    0.91040   0.47820   0.75460   Biso      1.000     C          0.481688  
         C11       1.0000    0.91780   0.22470   0.52340   Biso      1.000     C          0.555512  
         C12       1.0000    0.27990   0.02140   0.47780   Biso      1.000     C          0.543308  
         C13       1.0000    0.58960   0.52180   0.25460   Biso      1.000     C          0.48169   
         C14       1.0000    0.91040   0.02180   0.25460   Biso      1.000     C          0.481688  
         C15       1.0000    0.49380   0.57420   0.27790   Biso      1.000     C          0.47081   
         C16       1.0000    0.18800   0.02430   0.09460   Biso      1.000     C          0.151584  
         C17       1.0000    0.41780   0.27530   0.47660   Biso      1.000     C          0.555512  
         C18       1.0000    0.77990   0.47860   0.52220   Biso      1.000     C          0.543308  
         C19       1.0000    0.58220   0.77530   0.02340   Biso      1.000     C          0.555512  
         C20       1.0000    0.81200   0.52430   0.40540   Biso      1.000     C          0.151585  
         C21       1.0000    0.41040   0.47820   0.74540   Biso      1.000     C          0.481689  
         C22       1.0000    0.50620   0.42580   0.72210   Biso      1.000     C          0.47081   
         C23       1.0000    0.45190   0.70530   0.58760   Biso      1.000     C          0.569401  
         C24       1.0000    0.58220   0.72470   0.52340   Biso      1.000     C          0.555512  
         C25       1.0000    0.22010   0.52140   0.47780   Biso      1.000     C          0.543308  
         C26       1.0000    0.18800   0.47570   0.59460   Biso      1.000     C          0.151584  
         C27       1.0000    0.45190   0.79470   0.08760   Biso      1.000     C          0.569401  
         C28       1.0000    0.54810   0.29470   0.41240   Biso      1.000     C          0.569401  
         C29       1.0000    0.72010   0.52140   0.02220   Biso      1.000     C          0.543308  
         C30       1.0000    0.72010   0.97860   0.52220   Biso      1.000     C          0.543308  
         C31       1.0000    0.08960   0.52180   0.24540   Biso      1.000     C          0.481689  
         C32       1.0000    0.58960   0.97820   0.75460   Biso      1.000     C          0.481689  
         C33       1.0000    0.49380   0.92580   0.77790   Biso      1.000     C          0.47081   
         C34       1.0000    0.54810   0.20530   0.91240   Biso      1.000     C          0.569401  
         C35       1.0000    0.41780   0.22470   0.97660   Biso      1.000     C          0.555512  
         C36       1.0000    0.77990   0.02140   0.02220   Biso      1.000     C          0.543307  
         C37       1.0000    0.81200   0.97570   0.90540   Biso      1.000     C          0.151585  
         C38       1.0000    0.68800   0.47570   0.90540   Biso      1.000     C          0.151584  
         C39       1.0000    0.31200   0.97570   0.59460   Biso      1.000     C          0.151584  
         C40       1.0000    0.41040   0.02180   0.24540   Biso      1.000     C          0.481688  
         C41       1.0000    0.99380   0.57420   0.22210   Biso      1.000     C          0.47081   
         C42       1.0000    0.04810   0.29470   0.08760   Biso      1.000     C          0.569401  
         C43       1.0000    0.27990   0.47860   0.97780   Biso      1.000     C          0.543308  
         C44       1.0000    0.04810   0.20530   0.58760   Biso      1.000     C          0.569401  
         C45       1.0000    0.99380   0.92580   0.72210   Biso      1.000     C          0.470811  
         C46       1.0000    0.91780   0.27530   0.02340   Biso      1.000     C          0.555511  
         C47       1.0000    0.08960   0.97820   0.74540   Biso      1.000     C          0.481688  
         C48       1.0000    0.31200   0.52430   0.09460   Biso      1.000     C          0.151584  
         H1        1.0000    0.30520   0.54480   0.14720   Biso      1.000     H          0.10384   
         H2        1.0000    0.26020   0.42940   0.87060   Biso      1.000     H          0.362083  
         H3        1.0000    0.32900   0.67740   0.64120   Biso      1.000     H          0.361083  
         H4        1.0000    0.36570   0.78490   0.65710   Biso      1.000     H          0.357523  
         H5        1.0000    0.16770   0.05220   0.41350   Biso      1.000     H          0.360143  
         H6        1.0000    0.80520   0.54480   0.35280   Biso      1.000     H          0.10384   
         H7        1.0000    0.30520   0.95520   0.64720   Biso      1.000     H          0.10384   
         H8        1.0000    0.13430   0.28490   0.65710   Biso      1.000     H          0.357523  
         H9        1.0000    0.79220   0.29030   0.97030   Biso      1.000     H          0.346773  
         H10       1.0000    0.23980   0.57060   0.37060   Biso      1.000     H          0.362083  
         H11       1.0000    0.13430   0.21510   0.15710   Biso      1.000     H          0.357523  
         H12       1.0000    0.33230   0.55220   0.41350   Biso      1.000     H          0.360143  
         H13       1.0000    0.80630   0.18370   0.00400   Biso      1.000     H          0.331088  
         H14       1.0000    0.19370   0.81630   0.99600   Biso      1.000     H          0.331088  
         H15       1.0000    0.70780   0.70970   0.47030   Biso      1.000     H          0.346773  
         H16       1.0000    0.69370   0.81630   0.50400   Biso      1.000     H          0.331088  
         H17       1.0000    0.26020   0.07060   0.37060   Biso      1.000     H          0.362083  
         H18       1.0000    0.80630   0.31630   0.50400   Biso      1.000     H          0.331088  
         H19       1.0000    0.79220   0.20970   0.47030   Biso      1.000     H          0.346773  
         H20       1.0000    0.17100   0.17740   0.64120   Biso      1.000     H          0.361082  
         H21       1.0000    0.17100   0.32260   0.14120   Biso      1.000     H          0.361082  
         H22       1.0000    0.23980   0.92940   0.87060   Biso      1.000     H          0.362083  
         H23       1.0000    0.19480   0.45520   0.64720   Biso      1.000     H          0.10384   
         H24       1.0000    0.32900   0.82260   0.14120   Biso      1.000     H          0.361083  
         H25       1.0000    0.66770   0.05220   0.08650   Biso      1.000     H          0.360143  
         H26       1.0000    0.76020   0.07060   0.12940   Biso      1.000     H          0.362083  
         H27       1.0000    0.82900   0.67740   0.85880   Biso      1.000     H          0.361083  
         H28       1.0000    0.86570   0.78490   0.84290   Biso      1.000     H          0.357523  
         H29       1.0000    0.36570   0.71510   0.15710   Biso      1.000     H          0.357523  
         H30       1.0000    0.29220   0.20970   0.02970   Biso      1.000     H          0.346773  
         H31       1.0000    0.63430   0.28490   0.84290   Biso      1.000     H          0.357523  
         H32       1.0000    0.69370   0.68370   0.00400   Biso      1.000     H          0.331088  
         H33       1.0000    0.70780   0.79030   0.97030   Biso      1.000     H          0.346773  
         H34       1.0000    0.73980   0.57060   0.12940   Biso      1.000     H          0.362083  
         H35       1.0000    0.83230   0.55220   0.08650   Biso      1.000     H          0.360143  
         H36       1.0000    0.80520   0.95520   0.85280   Biso      1.000     H          0.10384   
         H37       1.0000    0.20780   0.70970   0.02970   Biso      1.000     H          0.346774  
         H38       1.0000    0.67100   0.17740   0.85880   Biso      1.000     H          0.361083  
         H39       1.0000    0.33230   0.94780   0.91350   Biso      1.000     H          0.360143  
         H40       1.0000    0.30630   0.31630   0.99600   Biso      1.000     H          0.331088  
         H41       1.0000    0.69480   0.04480   0.35280   Biso      1.000     H          0.10384   
         H42       1.0000    0.67100   0.32260   0.35880   Biso      1.000     H          0.361083  
         H43       1.0000    0.63430   0.21510   0.34290   Biso      1.000     H          0.357523  
         H44       1.0000    0.19370   0.68370   0.49600   Biso      1.000     H          0.331088  
         H45       1.0000    0.20780   0.79030   0.52970   Biso      1.000     H          0.346774  
         H46       1.0000    0.16770   0.44780   0.91350   Biso      1.000     H          0.360143  
         H47       1.0000    0.19480   0.04480   0.14720   Biso      1.000     H          0.10384   
         H48       1.0000    0.76020   0.42940   0.62940   Biso      1.000     H          0.362083  
         H49       1.0000    0.83230   0.94780   0.58650   Biso      1.000     H          0.360143  
         H50       1.0000    0.73980   0.92940   0.62940   Biso      1.000     H          0.362083  
         H51       1.0000    0.66770   0.44780   0.58650   Biso      1.000     H          0.360143  
         H52       1.0000    0.29220   0.29030   0.52970   Biso      1.000     H          0.346774  
         H53       1.0000    0.30630   0.18370   0.49600   Biso      1.000     H          0.331089  
         H54       1.0000    0.86570   0.71510   0.34290   Biso      1.000     H          0.357523  
         H55       1.0000    0.82900   0.82260   0.35880   Biso      1.000     H          0.361083  
         H56       1.0000    0.69480   0.45520   0.85280   Biso      1.000     H          0.10384   
         N1        1.0000    0.67300   0.74600   0.99600   Biso      1.000     N          -0.764649           
         N2        1.0000    0.97890   0.27710   0.57260   Biso      1.000     N          -0.523806           
         N3        1.0000    0.82700   0.24600   0.99600   Biso      1.000     N          -0.764649           
         N4        1.0000    0.94730   0.12820   0.50940   Biso      1.000     N          -0.327261           
         N5        1.0000    0.77020   0.55170   0.08730   Biso      1.000     N          -0.741    
         N6        1.0000    0.76300   0.49470   0.95340   Biso      1.000     N          -0.433563           
         N7        1.0000    0.62440   0.51800   0.01760   Biso      1.000     N          -0.332872           
         N8        1.0000    0.60410   0.48870   0.93980   Biso      1.000     N          -0.205985           
         N9        1.0000    0.87220   0.72500   0.86550   Biso      1.000     N          -0.760205           
         N10       1.0000    0.05270   0.62820   0.99060   Biso      1.000     N          -0.327261           
         N11       1.0000    0.96740   0.61560   0.94910   Biso      1.000     N          -0.336841           
         N12       1.0000    0.02110   0.77710   0.92740   Biso      1.000     N          -0.523807           
         N13       1.0000    0.32700   0.24600   0.50400   Biso      1.000     N          -0.764649           
         N14       1.0000    0.72980   0.44830   0.58730   Biso      1.000     N          -0.741    
         N15       1.0000    0.03260   0.11560   0.55090   Biso      1.000     N          -0.336841           
         N16       1.0000    0.73700   0.50530   0.45340   Biso      1.000     N          -0.433563           
         N17       1.0000    0.89590   0.51130   0.43980   Biso      1.000     N          -0.20599  
         N18       1.0000    0.44730   0.37180   0.49060   Biso      1.000     N          -0.327261           
         N19       1.0000    0.53260   0.38440   0.44910   Biso      1.000     N          -0.336841           
         N20       1.0000    0.47890   0.22290   0.42740   Biso      1.000     N          -0.523807           
         N21       1.0000    0.82700   0.25400   0.49600   Biso      1.000     N          -0.764649           
         N22       1.0000    0.22980   0.05170   0.41270   Biso      1.000     N          -0.741    
         N23       1.0000    0.23700   0.99470   0.54660   Biso      1.000     N          -0.433563           
         N24       1.0000    0.37560   0.01800   0.48240   Biso      1.000     N          -0.332872           
         N25       1.0000    0.39590   0.98870   0.56020   Biso      1.000     N          -0.205985           
         N26       1.0000    0.12780   0.22500   0.63450   Biso      1.000     N          -0.760205           
         N27       1.0000    0.87560   0.48200   0.51760   Biso      1.000     N          -0.332867           
         N28       1.0000    0.62780   0.27500   0.36550   Biso      1.000     N          -0.760205           
         N29       1.0000    0.17300   0.75400   0.00400   Biso      1.000     N          -0.764649           
         N30       1.0000    0.55270   0.62820   0.50940   Biso      1.000     N          -0.327261           
         N31       1.0000    0.03260   0.38440   0.05090   Biso      1.000     N          -0.336844           
         N32       1.0000    0.97890   0.22290   0.07260   Biso      1.000     N          -0.523806           
         N33       1.0000    0.32700   0.25400   0.00400   Biso      1.000     N          -0.764649           
         N34       1.0000    0.67300   0.75400   0.49600   Biso      1.000     N          -0.764649           
         N35       1.0000    0.02110   0.72290   0.42740   Biso      1.000     N          -0.523806           
         N36       1.0000    0.96740   0.88440   0.44910   Biso      1.000     N          -0.336844           
         N37       1.0000    0.05270   0.87180   0.49060   Biso      1.000     N          -0.327258           
         N38       1.0000    0.87220   0.77500   0.36550   Biso      1.000     N          -0.760206           
         N39       1.0000    0.60410   0.01130   0.43980   Biso      1.000     N          -0.205991           
         N40       1.0000    0.94730   0.37180   0.00940   Biso      1.000     N          -0.327258           
         N41       1.0000    0.62440   0.98200   0.51760   Biso      1.000     N          -0.332867           
         N42       1.0000    0.26300   0.49470   0.54660   Biso      1.000     N          -0.433563           
         N43       1.0000    0.12440   0.51800   0.48240   Biso      1.000     N          -0.332871           
         N44       1.0000    0.10410   0.48870   0.56020   Biso      1.000     N          -0.205986           
         N45       1.0000    0.37220   0.72500   0.63450   Biso      1.000     N          -0.760206           
         N46       1.0000    0.27020   0.94830   0.91270   Biso      1.000     N          -0.741    
         N47       1.0000    0.46740   0.61560   0.55090   Biso      1.000     N          -0.336841           
         N48       1.0000    0.52110   0.77710   0.57260   Biso      1.000     N          -0.523806           
         N49       1.0000    0.76300   0.00530   0.45340   Biso      1.000     N          -0.433563           
         N50       1.0000    0.17300   0.74600   0.50400   Biso      1.000     N          -0.764649           
         N51       1.0000    0.27020   0.55170   0.41270   Biso      1.000     N          -0.741    
         N52       1.0000    0.12780   0.27500   0.13450   Biso      1.000     N          -0.760205           
         N53       1.0000    0.72980   0.05170   0.08730   Biso      1.000     N          -0.741    
         N54       1.0000    0.37560   0.48200   0.98240   Biso      1.000     N          -0.332871           
         N55       1.0000    0.26300   0.00530   0.04660   Biso      1.000     N          -0.433563           
         N56       1.0000    0.12440   0.98200   0.98240   Biso      1.000     N          -0.332872           
         N57       1.0000    0.10410   0.01130   0.06020   Biso      1.000     N          -0.205985           
         N58       1.0000    0.47890   0.27710   0.92740   Biso      1.000     N          -0.523806           
         N59       1.0000    0.37220   0.77500   0.13450   Biso      1.000     N          -0.760205           
         N60       1.0000    0.55270   0.87180   0.00940   Biso      1.000     N          -0.327261           
         N61       1.0000    0.39590   0.51130   0.06020   Biso      1.000     N          -0.205986           
         N62       1.0000    0.52110   0.72290   0.07260   Biso      1.000     N          -0.523807           
         N63       1.0000    0.53260   0.11560   0.94910   Biso      1.000     N          -0.336844           
         N64       1.0000    0.44730   0.12820   0.99060   Biso      1.000     N          -0.327258           
         N65       1.0000    0.46740   0.88440   0.05090   Biso      1.000     N          -0.336841           
         N66       1.0000    0.89590   0.98870   0.93980   Biso      1.000     N          -0.205991           
         N67       1.0000    0.23700   0.50530   0.04660   Biso      1.000     N          -0.433562           
         N68       1.0000    0.62780   0.22500   0.86550   Biso      1.000     N          -0.760205           
         N69       1.0000    0.22980   0.44830   0.91270   Biso      1.000     N          -0.741    
         N70       1.0000    0.73700   0.99470   0.95340   Biso      1.000     N          -0.433562           
         N71       1.0000    0.87560   0.01800   0.01760   Biso      1.000     N          -0.332866           
         N72       1.0000    0.77020   0.94830   0.58730   Biso      1.000     N          -0.741    
         O1        1.0000    0.60630   0.99200   0.68230   Biso      1.000     O          -0.488704           
         O2        1.0000    0.47840   0.91620   0.85030   Biso      1.000     O          -0.508245           
         O3        1.0000    0.64380   0.00710   0.80940   Biso      1.000     O          -0.495239           
         O4        1.0000    0.85620   0.50710   0.80940   Biso      1.000     O          -0.495239           
         O5        1.0000    0.64380   0.49290   0.30940   Biso      1.000     O          -0.495239           
         O6        1.0000    0.02160   0.41620   0.85030   Biso      1.000     O          -0.508245           
         O7        1.0000    0.89370   0.49200   0.68230   Biso      1.000     O          -0.488704           
         O8        1.0000    0.44160   0.60270   0.22090   Biso      1.000     O          -0.533371           
         O9        1.0000    0.05840   0.39730   0.72090   Biso      1.000     O          -0.533371           
         O10       1.0000    0.60630   0.50800   0.18230   Biso      1.000     O          -0.488704           
         O11       1.0000    0.47840   0.58380   0.35030   Biso      1.000     O          -0.508245           
         O12       1.0000    0.44160   0.89730   0.72090   Biso      1.000     O          -0.533371           
         O13       1.0000    0.35620   0.99290   0.19060   Biso      1.000     O          -0.495239           
         O14       1.0000    0.02160   0.08380   0.35030   Biso      1.000     O          -0.508245           
         O15       1.0000    0.52160   0.08380   0.14970   Biso      1.000     O          -0.508245           
         O16       1.0000    0.39370   0.00800   0.31770   Biso      1.000     O          -0.488704           
         O17       1.0000    0.55840   0.10270   0.27910   Biso      1.000     O          -0.533371           
         O18       1.0000    0.94160   0.60270   0.27910   Biso      1.000     O          -0.533371           
         O19       1.0000    0.10630   0.50800   0.31770   Biso      1.000     O          -0.488704           
         O20       1.0000    0.97840   0.58380   0.14970   Biso      1.000     O          -0.508245           
         O21       1.0000    0.14380   0.49290   0.19060   Biso      1.000     O          -0.495239           
         O22       1.0000    0.14380   0.00710   0.69060   Biso      1.000     O          -0.495239           
         O23       1.0000    0.97840   0.91620   0.64970   Biso      1.000     O          -0.508245           
         O24       1.0000    0.85620   0.99290   0.30940   Biso      1.000     O          -0.495239           
         O25       1.0000    0.94160   0.89730   0.77910   Biso      1.000     O          -0.533371           
         O26       1.0000    0.10630   0.99200   0.81770   Biso      1.000     O          -0.488704           
         O27       1.0000    0.35620   0.50710   0.69060   Biso      1.000     O          -0.495239           
         O28       1.0000    0.89370   0.00800   0.18230   Biso      1.000     O          -0.488703           
         O29       1.0000    0.05840   0.10270   0.22090   Biso      1.000     O          -0.533371           
         O30       1.0000    0.39370   0.49200   0.81770   Biso      1.000     O          -0.488704           
         O31       1.0000    0.52160   0.41620   0.64970   Biso      1.000     O          -0.508245           
         O32       1.0000    0.55840   0.39730   0.77910   Biso      1.000     O          -0.533371           
         Zn1       1.0000    0.47753   0.43198   0.90213   Biso      1.000     Zn          0.727583  
         Zn2       1.0000    0.40646   0.47602   0.57587   Biso      1.000     Zn          0.72932   
         Zn3       1.0000    0.09354   0.97602   0.57587   Biso      1.000     Zn          0.72932   
         Zn4       1.0000    0.97753   0.43198   0.59787   Biso      1.000     Zn          0.727583  
         Zn5       1.0000    0.52247   0.56802   0.09787   Biso      1.000     Zn          0.727584  
         Zn6       1.0000    0.40646   0.02398   0.07587   Biso      1.000     Zn          0.72932   
         Zn7       1.0000    0.02247   0.56802   0.40213   Biso      1.000     Zn          0.727584  
         Zn8       1.0000    0.90646   0.47602   0.92413   Biso      1.000     Zn          0.72932   
         Zn9       1.0000    0.97753   0.06802   0.09787   Biso      1.000     Zn          0.727583  
         Zn10      1.0000    0.02247   0.93198   0.90213   Biso      1.000     Zn          0.727584  
         Zn11      1.0000    0.47753   0.06802   0.40213   Biso      1.000     Zn          0.727584  
         Zn12      1.0000    0.59354   0.52398   0.42413   Biso      1.000     Zn          0.72932   
         Zn13      1.0000    0.09354   0.52398   0.07587   Biso      1.000     Zn          0.729319  
         Zn14      1.0000    0.90646   0.02398   0.42413   Biso      1.000     Zn          0.72932   
         Zn15      1.0000    0.52247   0.93198   0.59787   Biso      1.000     Zn          0.727583  
         Zn16      1.0000    0.59354   0.97602   0.92413   Biso      1.000     Zn          0.72932 