
##########################################################################
#               Crystallographic Information Format file
#               Produced by PyCifRW module
#
#  This is a CIF file.  CIF has been adopted by the International
#  Union of Crystallography as the standard for data archiving and
#  transmission.
#
#  For information on this file format, follow the CIF links at
#  http://www.iucr.org
##########################################################################

data_image0

_cell_length_a                          11.4858
_cell_length_b                          11.4858
_cell_length_c                          14.756
_cell_angle_alpha                       90
_cell_angle_beta                        90
_cell_angle_gamma                       120
_symmetry_space_group_name_H-M          'P 1'
_symmetry_int_tables_number             1
loop_
  _symmetry_equiv_pos_as_xyz
         'x, y, z' 
loop_
  _atom_site_label
  _atom_site_occupancy
  _atom_site_fract_x
  _atom_site_fract_y
  _atom_site_fract_z
  _atom_site_thermal_displace_type
  _atom_site_B_iso_or_equiv
  _atom_site_type_symbol
  _atom_site_charge
         C1        1.0000    0.72360   0.40780   0.30870   Biso      1.000     C          0.078331  
         C2        1.0000    0.27640   0.68420   0.02463   Biso      1.000     C          0.079078  
         C3        1.0000    0.42080   0.31800   0.11240   Biso      1.000     C          0.6566649999999999  
         C4        1.0000    0.52340   0.34590   0.18600   Biso      1.000     C          -0.068511           
         C5        1.0000    0.59220   0.27640   0.19130   Biso      1.000     C          0.078331  
         C6        1.0000    0.89720   0.57920   0.77907   Biso      1.000     C          0.6568109999999999  
         C7        1.0000    0.82250   0.47660   0.85267   Biso      1.000     C          -0.068925           
         C8        1.0000    0.68420   0.40780   0.85797   Biso      1.000     C          0.07886599999999999           
         C9        1.0000    0.68200   0.10280   0.44573   Biso      1.000     C          0.656986  
         C10       1.0000    0.65410   0.17750   0.51933   Biso      1.000     C          -0.069223           
         C11       1.0000    0.72360   0.31580   0.52463   Biso      1.000     C          0.079078  
         C12       1.0000    0.89720   0.31800   0.05427   Biso      1.000     C          0.656986  
         C13       1.0000    0.82250   0.34590   0.98067   Biso      1.000     C          -0.06922400000000001          
         C14       1.0000    0.34590   0.82250   0.01933   Biso      1.000     C          -0.069223           
         C15       1.0000    0.68420   0.27640   0.97537   Biso      1.000     C          0.079078  
         C16       1.0000    0.65410   0.47660   0.31400   Biso      1.000     C          -0.068511           
         C17       1.0000    0.44680   0.55320   0.75000   Biso      1.000     C          -0.065557           
         C18       1.0000    0.42080   0.10280   0.72093   Biso      1.000     C          0.6568109999999999  
         C19       1.0000    0.52340   0.17750   0.64733   Biso      1.000     C          -0.068924           
         C20       1.0000    0.59220   0.31580   0.64203   Biso      1.000     C          0.07886599999999999           
         C21       1.0000    0.10280   0.68200   0.55427   Biso      1.000     C          0.656986  
         C22       1.0000    0.17750   0.65410   0.48067   Biso      1.000     C          -0.06922400000000001          
         C23       1.0000    0.31580   0.72360   0.47537   Biso      1.000     C          0.079078  
         C24       1.0000    0.31800   0.42080   0.88760   Biso      1.000     C          0.6566649999999999  
         C25       1.0000    0.34590   0.52340   0.81400   Biso      1.000     C          -0.068511           
         C26       1.0000    0.27640   0.59220   0.80870   Biso      1.000     C          0.078331  
         C27       1.0000    0.57920   0.89720   0.22093   Biso      1.000     C          0.6568109999999999  
         C28       1.0000    0.68200   0.57920   0.38760   Biso      1.000     C          0.6566649999999999  
         C29       1.0000    0.31800   0.89720   0.94573   Biso      1.000     C          0.656986  
         C30       1.0000    0.31580   0.59220   0.35797   Biso      1.000     C          0.07886599999999999           
         C31       1.0000    0.17750   0.52340   0.35267   Biso      1.000     C          -0.068924           
         C32       1.0000    0.55320   0.10640   0.58333   Biso      1.000     C          -0.066177           
         C33       1.0000    0.89360   0.44680   0.91667   Biso      1.000     C          -0.066177           
         C34       1.0000    0.55320   0.44680   0.25000   Biso      1.000     C          -0.065557           
         C35       1.0000    0.44680   0.89360   0.08333   Biso      1.000     C          -0.066177           
         C36       1.0000    0.10640   0.55320   0.41667   Biso      1.000     C          -0.066177           
         C37       1.0000    0.47660   0.82250   0.14733   Biso      1.000     C          -0.068925           
         C38       1.0000    0.40780   0.68420   0.14203   Biso      1.000     C          0.07886599999999999           
         C39       1.0000    0.10280   0.42080   0.27907   Biso      1.000     C          0.6568109999999999  
         C40       1.0000    0.40780   0.72360   0.69130   Biso      1.000     C          0.078331  
         C41       1.0000    0.47660   0.65410   0.68600   Biso      1.000     C          -0.068511           
         C42       1.0000    0.57920   0.68200   0.61240   Biso      1.000     C          0.6566649999999999  
         H1        1.0000    0.49315   0.98630   0.08333   Biso      1.000     H          0.130666  
         H2        1.0000    0.50685   0.01370   0.58333   Biso      1.000     H          0.130666  
         H3        1.0000    0.43250   0.79550   0.65200   Biso      1.000     H          0.097332  
         H4        1.0000    0.36300   0.56750   0.31867   Biso      1.000     H          0.097274  
         H5        1.0000    0.20450   0.63700   0.98533   Biso      1.000     H          0.096902  
         H6        1.0000    0.56750   0.20450   0.15200   Biso      1.000     H          0.097332  
         H7        1.0000    0.63700   0.43250   0.81867   Biso      1.000     H          0.097274  
         H8        1.0000    0.79550   0.36300   0.48533   Biso      1.000     H          0.096902  
         H9        1.0000    0.63700   0.20450   0.01467   Biso      1.000     H          0.096902  
         H10       1.0000    0.79550   0.43250   0.34800   Biso      1.000     H          0.097332  
         H11       1.0000    0.98630   0.49315   0.91667   Biso      1.000     H          0.130666  
         H12       1.0000    0.36300   0.79550   0.51467   Biso      1.000     H          0.096902  
         H13       1.0000    0.20450   0.56750   0.84800   Biso      1.000     H          0.097332  
         H14       1.0000    0.43250   0.63700   0.18133   Biso      1.000     H          0.097274  
         H15       1.0000    0.49315   0.50685   0.75000   Biso      1.000     H          0.13035   
         H16       1.0000    0.01370   0.50685   0.41667   Biso      1.000     H          0.130666  
         H17       1.0000    0.50685   0.49315   0.25000   Biso      1.000     H          0.13035   
         H18       1.0000    0.56750   0.36300   0.68133   Biso      1.000     H          0.097274  
         Mg1       1.0000    0.80653   0.61306   0.58333   Biso      1.000     Mg          1.3720379999999999  
         Mg2       1.0000    0.61306   0.80653   0.41667   Biso      1.000     Mg          1.372039  
         Mg3       1.0000    0.19347   0.80653   0.75000   Biso      1.000     Mg          1.3714    
         Mg4       1.0000    0.19347   0.38694   0.08333   Biso      1.000     Mg          1.3720379999999999  
         Mg5       1.0000    0.38694   0.19347   0.91667   Biso      1.000     Mg          1.372039  
         Mg6       1.0000    0.80653   0.19347   0.25000   Biso      1.000     Mg          1.3714    
         N1        1.0000    0.61350   0.30675   0.91667   Biso      1.000     N          -0.298167           
         N2        1.0000    0.69325   0.30675   0.25000   Biso      1.000     N          -0.297831           
         N3        1.0000    0.69325   0.38650   0.58333   Biso      1.000     N          -0.298166           
         N4        1.0000    0.38650   0.69325   0.41667   Biso      1.000     N          -0.298167           
         N5        1.0000    0.30675   0.69325   0.75000   Biso      1.000     N          -0.297831           
         N6        1.0000    0.30675   0.61350   0.08333   Biso      1.000     N          -0.298166           
         O1        1.0000    0.02230   0.38870   0.05377   Biso      1.000     O          -0.652753           
         O2        1.0000    0.22640   0.39860   0.94330   Biso      1.000     O          -0.680672           
         O3        1.0000    0.38870   0.36640   0.88710   Biso      1.000     O          -0.652574           
         O4        1.0000    0.17220   0.77360   0.60997   Biso      1.000     O          -0.68016  
         O5        1.0000    0.97770   0.61130   0.55377   Biso      1.000     O          -0.652753           
         O6        1.0000    0.39860   0.17220   0.77663   Biso      1.000     O          -0.6809729999999999           
         O7        1.0000    0.36640   0.97770   0.72043   Biso      1.000     O          -0.651996           
         O8        1.0000    0.77360   0.60140   0.44330   Biso      1.000     O          -0.680672           
         O9        1.0000    0.61130   0.63360   0.38710   Biso      1.000     O          -0.652574           
         O10       1.0000    0.82780   0.22640   0.10997   Biso      1.000     O          -0.68016  
         O11       1.0000    0.77360   0.17220   0.39003   Biso      1.000     O          -0.68016  
         O12       1.0000    0.36640   0.38870   0.11290   Biso      1.000     O          -0.652574           
         O13       1.0000    0.82780   0.60140   0.72337   Biso      1.000     O          -0.6809729999999999           
         O14       1.0000    0.02230   0.63360   0.77957   Biso      1.000     O          -0.651996           
         O15       1.0000    0.39860   0.22640   0.05670   Biso      1.000     O          -0.680672           
         O16       1.0000    0.63360   0.02230   0.22043   Biso      1.000     O          -0.651996           
         O17       1.0000    0.22640   0.82780   0.89003   Biso      1.000     O          -0.68016  
         O18       1.0000    0.38870   0.02230   0.94623   Biso      1.000     O          -0.652754           
         O19       1.0000    0.17220   0.39860   0.22337   Biso      1.000     O          -0.6809729999999999           
         O20       1.0000    0.97770   0.36640   0.27957   Biso      1.000     O          -0.651996           
         O21       1.0000    0.60140   0.77360   0.55670   Biso      1.000     O          -0.680672           
         O22       1.0000    0.63360   0.61130   0.61290   Biso      1.000     O          -0.652574           
         O23       1.0000    0.61130   0.97770   0.44623   Biso      1.000     O          -0.652753           
         O24       1.0000    0.60140   0.82780   0.27663   Biso      1.000     O          -0.6809729999999999 