data_image0
_cell_length_a       25.838
_cell_length_b       25.838
_cell_length_c       25.838
_cell_angle_alpha    90
_cell_angle_beta     90
_cell_angle_gamma    90

_symmetry_space_group_name_H-M    "P 1"
_symmetry_int_tables_number       1

loop_
  _symmetry_equiv_pos_as_xyz
  'x, y, z'

loop_
  _atom_site_label
  _atom_site_occupancy
  _atom_site_fract_x
  _atom_site_fract_y
  _atom_site_fract_z
  _atom_site_thermal_displace_type
  _atom_site_B_iso_or_equiv
  _atom_site_type_symbol
  _atom_site_charge
  C1       1.0000 0.21749  0.21749  0.02710  Biso   1.000  C  -0.098666
  C2       1.0000 0.21749  0.71749  0.52710  Biso   1.000  C  -0.098666
  C3       1.0000 0.71749  0.21749  0.52710  Biso   1.000  C  -0.098666
  C4       1.0000 0.71749  0.71749  0.02710  Biso   1.000  C  -0.098666
  C5       1.0000 0.78251  0.78251  0.02710  Biso   1.000  C  -0.098667
  C6       1.0000 0.78251  0.28251  0.52710  Biso   1.000  C  -0.098666
  C7       1.0000 0.28251  0.78251  0.52710  Biso   1.000  C  -0.098666
  C8       1.0000 0.28251  0.28251  0.02710  Biso   1.000  C  -0.098666
  C9       1.0000 0.78251  0.21749  0.97290  Biso   1.000  C  -0.098666
  C10      1.0000 0.78251  0.71749  0.47290  Biso   1.000  C  -0.098667
  C11      1.0000 0.28251  0.21749  0.47290  Biso   1.000  C  -0.098666
  C12      1.0000 0.28251  0.71749  0.97290  Biso   1.000  C  -0.098666
  C13      1.0000 0.21749  0.78251  0.97290  Biso   1.000  C  -0.098666
  C14      1.0000 0.21749  0.28251  0.47290  Biso   1.000  C  -0.098666
  C15      1.0000 0.71749  0.78251  0.47290  Biso   1.000  C  -0.098666
  C16      1.0000 0.71749  0.28251  0.97290  Biso   1.000  C  -0.098666
  C17      1.0000 0.02710  0.21749  0.21749  Biso   1.000  C  -0.098666
  C18      1.0000 0.02710  0.71749  0.71749  Biso   1.000  C  -0.098666
  C19      1.0000 0.52710  0.21749  0.71749  Biso   1.000  C  -0.098666
  C20      1.0000 0.52710  0.71749  0.21749  Biso   1.000  C  -0.098667
  C21      1.0000 0.02710  0.78251  0.78251  Biso   1.000  C  -0.098667
  C22      1.0000 0.02710  0.28251  0.28251  Biso   1.000  C  -0.098666
  C23      1.0000 0.52710  0.78251  0.28251  Biso   1.000  C  -0.098667
  C24      1.0000 0.52710  0.28251  0.78251  Biso   1.000  C  -0.098666
  C25      1.0000 0.97290  0.78251  0.21749  Biso   1.000  C  -0.098667
  C26      1.0000 0.97290  0.28251  0.71749  Biso   1.000  C  -0.098667
  C27      1.0000 0.47290  0.78251  0.71749  Biso   1.000  C  -0.098667
  C28      1.0000 0.47290  0.28251  0.21749  Biso   1.000  C  -0.098667
  C29      1.0000 0.97290  0.21749  0.78251  Biso   1.000  C  -0.098667
  C30      1.0000 0.97290  0.71749  0.28251  Biso   1.000  C  -0.098667
  C31      1.0000 0.47290  0.21749  0.28251  Biso   1.000  C  -0.098667
  C32      1.0000 0.47290  0.71749  0.78251  Biso   1.000  C  -0.098667
  C33      1.0000 0.21749  0.02710  0.21749  Biso   1.000  C  -0.098667
  C34      1.0000 0.21749  0.52710  0.71749  Biso   1.000  C  -0.098667
  C35      1.0000 0.71749  0.02710  0.71749  Biso   1.000  C  -0.098667
  C36      1.0000 0.71749  0.52710  0.21749  Biso   1.000  C  -0.098668
  C37      1.0000 0.78251  0.02710  0.78251  Biso   1.000  C  -0.098667
  C38      1.0000 0.78251  0.52710  0.28251  Biso   1.000  C  -0.098668
  C39      1.0000 0.28251  0.02710  0.28251  Biso   1.000  C  -0.098667
  C40      1.0000 0.28251  0.52710  0.78251  Biso   1.000  C  -0.098667
  C41      1.0000 0.21749  0.97290  0.78251  Biso   1.000  C  -0.098668
  C42      1.0000 0.21749  0.47290  0.28251  Biso   1.000  C  -0.098667
  C43      1.0000 0.71749  0.97290  0.28251  Biso   1.000  C  -0.098668
  C44      1.0000 0.71749  0.47290  0.78251  Biso   1.000  C  -0.098667
  C45      1.0000 0.78251  0.97290  0.21749  Biso   1.000  C  -0.098668
  C46      1.0000 0.78251  0.47290  0.71749  Biso   1.000  C  -0.098668
  C47      1.0000 0.28251  0.97290  0.71749  Biso   1.000  C  -0.098668
  C48      1.0000 0.28251  0.47290  0.21749  Biso   1.000  C  -0.098667
  C49      1.0000 0.21749  0.21749  0.97290  Biso   1.000  C  -0.098666
  C50      1.0000 0.21749  0.71749  0.47290  Biso   1.000  C  -0.098666
  C51      1.0000 0.71749  0.21749  0.47290  Biso   1.000  C  -0.098666
  C52      1.0000 0.71749  0.71749  0.97290  Biso   1.000  C  -0.098666
  C53      1.0000 0.78251  0.78251  0.97290  Biso   1.000  C  -0.098666
  C54      1.0000 0.78251  0.28251  0.47290  Biso   1.000  C  -0.098666
  C55      1.0000 0.28251  0.78251  0.47290  Biso   1.000  C  -0.098666
  C56      1.0000 0.28251  0.28251  0.97290  Biso   1.000  C  -0.098666
  C57      1.0000 0.21749  0.78251  0.02710  Biso   1.000  C  -0.098666
  C58      1.0000 0.21749  0.28251  0.52710  Biso   1.000  C  -0.098666
  C59      1.0000 0.71749  0.78251  0.52710  Biso   1.000  C  -0.098666
  C60      1.0000 0.71749  0.28251  0.02710  Biso   1.000  C  -0.098666
  C61      1.0000 0.78251  0.21749  0.02710  Biso   1.000  C  -0.098666
  C62      1.0000 0.78251  0.71749  0.52710  Biso   1.000  C  -0.098666
  C63      1.0000 0.28251  0.21749  0.52710  Biso   1.000  C  -0.098666
  C64      1.0000 0.28251  0.71749  0.02710  Biso   1.000  C  -0.098666
  C65      1.0000 0.21749  0.02710  0.78251  Biso   1.000  C  -0.098667
  C66      1.0000 0.21749  0.52710  0.28251  Biso   1.000  C  -0.098667
  C67      1.0000 0.71749  0.02710  0.28251  Biso   1.000  C  -0.098666
  C68      1.0000 0.71749  0.52710  0.78251  Biso   1.000  C  -0.098667
  C69      1.0000 0.78251  0.02710  0.21749  Biso   1.000  C  -0.098667
  C70      1.0000 0.78251  0.52710  0.71749  Biso   1.000  C  -0.098667
  C71      1.0000 0.28251  0.02710  0.71749  Biso   1.000  C  -0.098667
  C72      1.0000 0.28251  0.52710  0.21749  Biso   1.000  C  -0.098667
  C73      1.0000 0.78251  0.97290  0.78251  Biso   1.000  C  -0.098667
  C74      1.0000 0.78251  0.47290  0.28251  Biso   1.000  C  -0.098667
  C75      1.0000 0.28251  0.97290  0.28251  Biso   1.000  C  -0.098667
  C76      1.0000 0.28251  0.47290  0.78251  Biso   1.000  C  -0.098667
  C77      1.0000 0.21749  0.97290  0.21749  Biso   1.000  C  -0.098667
  C78      1.0000 0.21749  0.47290  0.71749  Biso   1.000  C  -0.098667
  C79      1.0000 0.71749  0.97290  0.71749  Biso   1.000  C  -0.098667
  C80      1.0000 0.71749  0.47290  0.21749  Biso   1.000  C  -0.098666
  C81      1.0000 0.02710  0.21749  0.78251  Biso   1.000  C  -0.098667
  C82      1.0000 0.02710  0.71749  0.28251  Biso   1.000  C  -0.098667
  C83      1.0000 0.52710  0.21749  0.28251  Biso   1.000  C  -0.098667
  C84      1.0000 0.52710  0.71749  0.78251  Biso   1.000  C  -0.098667
  C85      1.0000 0.02710  0.78251  0.21749  Biso   1.000  C  -0.098667
  C86      1.0000 0.02710  0.28251  0.71749  Biso   1.000  C  -0.098667
  C87      1.0000 0.52710  0.78251  0.71749  Biso   1.000  C  -0.098667
  C88      1.0000 0.52710  0.28251  0.21749  Biso   1.000  C  -0.098667
  C89      1.0000 0.97290  0.21749  0.21749  Biso   1.000  C  -0.098667
  C90      1.0000 0.97290  0.71749  0.71749  Biso   1.000  C  -0.098667
  C91      1.0000 0.47290  0.21749  0.71749  Biso   1.000  C  -0.098667
  C92      1.0000 0.47290  0.71749  0.21749  Biso   1.000  C  -0.098667
  C93      1.0000 0.97290  0.78251  0.78251  Biso   1.000  C  -0.098667
  C94      1.0000 0.97290  0.28251  0.28251  Biso   1.000  C  -0.098667
  C95      1.0000 0.47290  0.78251  0.28251  Biso   1.000  C  -0.098667
  C96      1.0000 0.47290  0.28251  0.78251  Biso   1.000  C  -0.098668
  C97      1.0000 0.25000  0.25000  0.11080  Biso   1.000  C  0.597307
  C98      1.0000 0.25000  0.25000  0.05320  Biso   1.000  C  -0.015474
  C99      1.0000 0.25000  0.75000  0.61080  Biso   1.000  C  0.597307
  C100     1.0000 0.25000  0.75000  0.55320  Biso   1.000  C  -0.015474
  C101     1.0000 0.75000  0.75000  0.11080  Biso   1.000  C  0.597306
  C102     1.0000 0.75000  0.75000  0.05320  Biso   1.000  C  -0.015474
  C103     1.0000 0.75000  0.25000  0.61080  Biso   1.000  C  0.597306
  C104     1.0000 0.75000  0.25000  0.55320  Biso   1.000  C  -0.015474
  C105     1.0000 0.75000  0.25000  0.88920  Biso   1.000  C  0.597306
  C106     1.0000 0.75000  0.25000  0.94680  Biso   1.000  C  -0.015474
  C107     1.0000 0.75000  0.75000  0.38920  Biso   1.000  C  0.597306
  C108     1.0000 0.75000  0.75000  0.44680  Biso   1.000  C  -0.015474
  C109     1.0000 0.25000  0.25000  0.38920  Biso   1.000  C  0.597306
  C110     1.0000 0.25000  0.25000  0.44680  Biso   1.000  C  -0.015473
  C111     1.0000 0.25000  0.75000  0.88920  Biso   1.000  C  0.597307
  C112     1.0000 0.25000  0.75000  0.94680  Biso   1.000  C  -0.015474
  C113     1.0000 0.11080  0.25000  0.25000  Biso   1.000  C  0.597306
  C114     1.0000 0.05320  0.25000  0.25000  Biso   1.000  C  -0.015474
  C115     1.0000 0.61080  0.25000  0.75000  Biso   1.000  C  0.597306
  C116     1.0000 0.55320  0.25000  0.75000  Biso   1.000  C  -0.015474
  C117     1.0000 0.11080  0.75000  0.75000  Biso   1.000  C  0.597306
  C118     1.0000 0.05320  0.75000  0.75000  Biso   1.000  C  -0.015474
  C119     1.0000 0.61080  0.75000  0.25000  Biso   1.000  C  0.597306
  C120     1.0000 0.55320  0.75000  0.25000  Biso   1.000  C  -0.015474
  C121     1.0000 0.88920  0.75000  0.25000  Biso   1.000  C  0.597307
  C122     1.0000 0.94680  0.75000  0.25000  Biso   1.000  C  -0.015474
  C123     1.0000 0.38920  0.75000  0.75000  Biso   1.000  C  0.597306
  C124     1.0000 0.44680  0.75000  0.75000  Biso   1.000  C  -0.015474
  C125     1.0000 0.38920  0.25000  0.25000  Biso   1.000  C  0.597306
  C126     1.0000 0.44680  0.25000  0.25000  Biso   1.000  C  -0.015474
  C127     1.0000 0.88920  0.25000  0.75000  Biso   1.000  C  0.597306
  C128     1.0000 0.94680  0.25000  0.75000  Biso   1.000  C  -0.015474
  C129     1.0000 0.25000  0.11080  0.25000  Biso   1.000  C  0.597306
  C130     1.0000 0.25000  0.05320  0.25000  Biso   1.000  C  -0.015474
  C131     1.0000 0.25000  0.61080  0.75000  Biso   1.000  C  0.597306
  C132     1.0000 0.25000  0.55320  0.75000  Biso   1.000  C  -0.015474
  C133     1.0000 0.75000  0.11080  0.75000  Biso   1.000  C  0.597306
  C134     1.0000 0.75000  0.05320  0.75000  Biso   1.000  C  -0.015474
  C135     1.0000 0.75000  0.61080  0.25000  Biso   1.000  C  0.597306
  C136     1.0000 0.75000  0.55320  0.25000  Biso   1.000  C  -0.015474
  C137     1.0000 0.25000  0.88920  0.75000  Biso   1.000  C  0.597307
  C138     1.0000 0.25000  0.94680  0.75000  Biso   1.000  C  -0.015474
  C139     1.0000 0.25000  0.38920  0.25000  Biso   1.000  C  0.597306
  C140     1.0000 0.25000  0.44680  0.25000  Biso   1.000  C  -0.015474
  C141     1.0000 0.75000  0.88920  0.25000  Biso   1.000  C  0.597306
  C142     1.0000 0.75000  0.94680  0.25000  Biso   1.000  C  -0.015474
  C143     1.0000 0.75000  0.38920  0.75000  Biso   1.000  C  0.597306
  C144     1.0000 0.75000  0.44680  0.75000  Biso   1.000  C  -0.015474
  C145     1.0000 0.25000  0.25000  0.88920  Biso   1.000  C  0.597306
  C146     1.0000 0.25000  0.25000  0.94680  Biso   1.000  C  -0.015474
  C147     1.0000 0.25000  0.75000  0.38920  Biso   1.000  C  0.597306
  C148     1.0000 0.25000  0.75000  0.44680  Biso   1.000  C  -0.015474
  C149     1.0000 0.75000  0.75000  0.88920  Biso   1.000  C  0.597307
  C150     1.0000 0.75000  0.75000  0.94680  Biso   1.000  C  -0.015474
  C151     1.0000 0.75000  0.25000  0.38920  Biso   1.000  C  0.597306
  C152     1.0000 0.75000  0.25000  0.44680  Biso   1.000  C  -0.015474
  C153     1.0000 0.25000  0.75000  0.11080  Biso   1.000  C  0.597306
  C154     1.0000 0.25000  0.75000  0.05320  Biso   1.000  C  -0.015474
  C155     1.0000 0.25000  0.25000  0.61080  Biso   1.000  C  0.597306
  C156     1.0000 0.25000  0.25000  0.55320  Biso   1.000  C  -0.015474
  C157     1.0000 0.75000  0.25000  0.11080  Biso   1.000  C  0.597306
  C158     1.0000 0.75000  0.25000  0.05320  Biso   1.000  C  -0.015474
  C159     1.0000 0.75000  0.75000  0.61080  Biso   1.000  C  0.597307
  C160     1.0000 0.75000  0.75000  0.55320  Biso   1.000  C  -0.015474
  C161     1.0000 0.25000  0.11080  0.75000  Biso   1.000  C  0.597306
  C162     1.0000 0.25000  0.05320  0.75000  Biso   1.000  C  -0.015475
  C163     1.0000 0.25000  0.61080  0.25000  Biso   1.000  C  0.597306
  C164     1.0000 0.25000  0.55320  0.25000  Biso   1.000  C  -0.015474
  C165     1.0000 0.75000  0.11080  0.25000  Biso   1.000  C  0.597306
  C166     1.0000 0.75000  0.05320  0.25000  Biso   1.000  C  -0.015475
  C167     1.0000 0.75000  0.61080  0.75000  Biso   1.000  C  0.597306
  C168     1.0000 0.75000  0.55320  0.75000  Biso   1.000  C  -0.015474
  C169     1.0000 0.75000  0.88920  0.75000  Biso   1.000  C  0.597307
  C170     1.0000 0.75000  0.94680  0.75000  Biso   1.000  C  -0.015474
  C171     1.0000 0.75000  0.38920  0.25000  Biso   1.000  C  0.597306
  C172     1.0000 0.75000  0.44680  0.25000  Biso   1.000  C  -0.015475
  C173     1.0000 0.25000  0.88920  0.25000  Biso   1.000  C  0.597306
  C174     1.0000 0.25000  0.94680  0.25000  Biso   1.000  C  -0.015474
  C175     1.0000 0.25000  0.38920  0.75000  Biso   1.000  C  0.597306
  C176     1.0000 0.25000  0.44680  0.75000  Biso   1.000  C  -0.015475
  C177     1.0000 0.11080  0.25000  0.75000  Biso   1.000  C  0.597306
  C178     1.0000 0.05320  0.25000  0.75000  Biso   1.000  C  -0.015475
  C179     1.0000 0.61080  0.25000  0.25000  Biso   1.000  C  0.597306
  C180     1.0000 0.55320  0.25000  0.25000  Biso   1.000  C  -0.015475
  C181     1.0000 0.11080  0.75000  0.25000  Biso   1.000  C  0.597306
  C182     1.0000 0.05320  0.75000  0.25000  Biso   1.000  C  -0.015475
  C183     1.0000 0.61080  0.75000  0.75000  Biso   1.000  C  0.597307
  C184     1.0000 0.55320  0.75000  0.75000  Biso   1.000  C  -0.015474
  C185     1.0000 0.88920  0.25000  0.25000  Biso   1.000  C  0.597306
  C186     1.0000 0.94680  0.25000  0.25000  Biso   1.000  C  -0.015475
  C187     1.0000 0.38920  0.25000  0.75000  Biso   1.000  C  0.597306
  C188     1.0000 0.44680  0.25000  0.75000  Biso   1.000  C  -0.015474
  C189     1.0000 0.88920  0.75000  0.75000  Biso   1.000  C  0.597307
  C190     1.0000 0.94680  0.75000  0.75000  Biso   1.000  C  -0.015474
  C191     1.0000 0.38920  0.75000  0.25000  Biso   1.000  C  0.597307
  C192     1.0000 0.44680  0.75000  0.25000  Biso   1.000  C  -0.015474
  H1       1.0000 0.19500  0.19500  0.04550  Biso   1.000  H  0.122557
  H2       1.0000 0.19500  0.69500  0.54550  Biso   1.000  H  0.122556
  H3       1.0000 0.69500  0.19500  0.54550  Biso   1.000  H  0.122556
  H4       1.0000 0.69500  0.69500  0.04550  Biso   1.000  H  0.122556
  H5       1.0000 0.80500  0.80500  0.04550  Biso   1.000  H  0.122556
  H6       1.0000 0.80500  0.30500  0.54550  Biso   1.000  H  0.122555
  H7       1.0000 0.30500  0.80500  0.54550  Biso   1.000  H  0.122556
  H8       1.0000 0.30500  0.30500  0.04550  Biso   1.000  H  0.122556
  H9       1.0000 0.80500  0.19500  0.95450  Biso   1.000  H  0.122555
  H10      1.0000 0.80500  0.69500  0.45450  Biso   1.000  H  0.122556
  H11      1.0000 0.30500  0.19500  0.45450  Biso   1.000  H  0.122556
  H12      1.0000 0.30500  0.69500  0.95450  Biso   1.000  H  0.122556
  H13      1.0000 0.19500  0.80500  0.95450  Biso   1.000  H  0.122556
  H14      1.0000 0.19500  0.30500  0.45450  Biso   1.000  H  0.122557
  H15      1.0000 0.69500  0.80500  0.45450  Biso   1.000  H  0.122556
  H16      1.0000 0.69500  0.30500  0.95450  Biso   1.000  H  0.122556
  H17      1.0000 0.04550  0.19500  0.19500  Biso   1.000  H  0.122555
  H18      1.0000 0.04550  0.69500  0.69500  Biso   1.000  H  0.122556
  H19      1.0000 0.54550  0.19500  0.69500  Biso   1.000  H  0.122555
  H20      1.0000 0.54550  0.69500  0.19500  Biso   1.000  H  0.122555
  H21      1.0000 0.04550  0.80500  0.80500  Biso   1.000  H  0.122555
  H22      1.0000 0.04550  0.30500  0.30500  Biso   1.000  H  0.122555
  H23      1.0000 0.54550  0.80500  0.30500  Biso   1.000  H  0.122554
  H24      1.0000 0.54550  0.30500  0.80500  Biso   1.000  H  0.122554
  H25      1.0000 0.95450  0.80500  0.19500  Biso   1.000  H  0.122555
  H26      1.0000 0.95450  0.30500  0.69500  Biso   1.000  H  0.122554
  H27      1.0000 0.45450  0.80500  0.69500  Biso   1.000  H  0.122554
  H28      1.0000 0.45450  0.30500  0.19500  Biso   1.000  H  0.122555
  H29      1.0000 0.95450  0.19500  0.80500  Biso   1.000  H  0.122554
  H30      1.0000 0.95450  0.69500  0.30500  Biso   1.000  H  0.122554
  H31      1.0000 0.45450  0.19500  0.30500  Biso   1.000  H  0.122555
  H32      1.0000 0.45450  0.69500  0.80500  Biso   1.000  H  0.122555
  H33      1.0000 0.19500  0.04550  0.19500  Biso   1.000  H  0.122553
  H34      1.0000 0.19500  0.54550  0.69500  Biso   1.000  H  0.122554
  H35      1.0000 0.69500  0.04550  0.69500  Biso   1.000  H  0.122554
  H36      1.0000 0.69500  0.54550  0.19500  Biso   1.000  H  0.122553
  H37      1.0000 0.80500  0.04550  0.80500  Biso   1.000  H  0.122553
  H38      1.0000 0.80500  0.54550  0.30500  Biso   1.000  H  0.122554
  H39      1.0000 0.30500  0.04550  0.30500  Biso   1.000  H  0.122553
  H40      1.0000 0.30500  0.54550  0.80500  Biso   1.000  H  0.122554
  H41      1.0000 0.19500  0.95450  0.80500  Biso   1.000  H  0.122553
  H42      1.0000 0.19500  0.45450  0.30500  Biso   1.000  H  0.122553
  H43      1.0000 0.69500  0.95450  0.30500  Biso   1.000  H  0.122553
  H44      1.0000 0.69500  0.45450  0.80500  Biso   1.000  H  0.122553
  H45      1.0000 0.80500  0.95450  0.19500  Biso   1.000  H  0.122554
  H46      1.0000 0.80500  0.45450  0.69500  Biso   1.000  H  0.122552
  H47      1.0000 0.30500  0.95450  0.69500  Biso   1.000  H  0.122553
  H48      1.0000 0.30500  0.45450  0.19500  Biso   1.000  H  0.122553
  H49      1.0000 0.19500  0.19500  0.95450  Biso   1.000  H  0.122554
  H50      1.0000 0.19500  0.69500  0.45450  Biso   1.000  H  0.122553
  H51      1.0000 0.69500  0.19500  0.45450  Biso   1.000  H  0.122554
  H52      1.0000 0.69500  0.69500  0.95450  Biso   1.000  H  0.122554
  H53      1.0000 0.80500  0.80500  0.95450  Biso   1.000  H  0.122554
  H54      1.0000 0.80500  0.30500  0.45450  Biso   1.000  H  0.122554
  H55      1.0000 0.30500  0.80500  0.45450  Biso   1.000  H  0.122554
  H56      1.0000 0.30500  0.30500  0.95450  Biso   1.000  H  0.122554
  H57      1.0000 0.19500  0.80500  0.04550  Biso   1.000  H  0.122554
  H58      1.0000 0.19500  0.30500  0.54550  Biso   1.000  H  0.122554
  H59      1.0000 0.69500  0.80500  0.54550  Biso   1.000  H  0.122554
  H60      1.0000 0.69500  0.30500  0.04550  Biso   1.000  H  0.122554
  H61      1.0000 0.80500  0.19500  0.04550  Biso   1.000  H  0.122554
  H62      1.0000 0.80500  0.69500  0.54550  Biso   1.000  H  0.122554
  H63      1.0000 0.30500  0.19500  0.54550  Biso   1.000  H  0.122554
  H64      1.0000 0.30500  0.69500  0.04550  Biso   1.000  H  0.122554
  H65      1.0000 0.19500  0.04550  0.80500  Biso   1.000  H  0.122553
  H66      1.0000 0.19500  0.54550  0.30500  Biso   1.000  H  0.122552
  H67      1.0000 0.69500  0.04550  0.30500  Biso   1.000  H  0.122553
  H68      1.0000 0.69500  0.54550  0.80500  Biso   1.000  H  0.122553
  H69      1.0000 0.80500  0.04550  0.19500  Biso   1.000  H  0.122553
  H70      1.0000 0.80500  0.54550  0.69500  Biso   1.000  H  0.122552
  H71      1.0000 0.30500  0.04550  0.69500  Biso   1.000  H  0.122552
  H72      1.0000 0.30500  0.54550  0.19500  Biso   1.000  H  0.122553
  H73      1.0000 0.80500  0.95450  0.80500  Biso   1.000  H  0.122553
  H74      1.0000 0.80500  0.45450  0.30500  Biso   1.000  H  0.122553
  H75      1.0000 0.30500  0.95450  0.30500  Biso   1.000  H  0.122553
  H76      1.0000 0.30500  0.45450  0.80500  Biso   1.000  H  0.122553
  H77      1.0000 0.19500  0.95450  0.19500  Biso   1.000  H  0.122552
  H78      1.0000 0.19500  0.45450  0.69500  Biso   1.000  H  0.122553
  H79      1.0000 0.69500  0.95450  0.69500  Biso   1.000  H  0.122553
  H80      1.0000 0.69500  0.45450  0.19500  Biso   1.000  H  0.122553
  H81      1.0000 0.04550  0.19500  0.80500  Biso   1.000  H  0.122551
  H82      1.0000 0.04550  0.69500  0.30500  Biso   1.000  H  0.122551
  H83      1.0000 0.54550  0.19500  0.30500  Biso   1.000  H  0.122551
  H84      1.0000 0.54550  0.69500  0.80500  Biso   1.000  H  0.122551
  H85      1.0000 0.04550  0.80500  0.19500  Biso   1.000  H  0.122551
  H86      1.0000 0.04550  0.30500  0.69500  Biso   1.000  H  0.122551
  H87      1.0000 0.54550  0.80500  0.69500  Biso   1.000  H  0.122551
  H88      1.0000 0.54550  0.30500  0.19500  Biso   1.000  H  0.122551
  H89      1.0000 0.95450  0.19500  0.19500  Biso   1.000  H  0.122552
  H90      1.0000 0.95450  0.69500  0.69500  Biso   1.000  H  0.122552
  H91      1.0000 0.45450  0.19500  0.69500  Biso   1.000  H  0.122552
  H92      1.0000 0.45450  0.69500  0.19500  Biso   1.000  H  0.122552
  H93      1.0000 0.95450  0.80500  0.80500  Biso   1.000  H  0.122552
  H94      1.0000 0.95450  0.30500  0.30500  Biso   1.000  H  0.122552
  H95      1.0000 0.45450  0.80500  0.30500  Biso   1.000  H  0.122552
  H96      1.0000 0.45450  0.30500  0.80500  Biso   1.000  H  0.122552
  Ni1      1.0000 0.20654  0.20654  0.20654  Biso   1.000  Ni  0.911834
  Ni2      1.0000 0.20654  0.70654  0.70654  Biso   1.000  Ni  0.911835
  Ni3      1.0000 0.70654  0.20654  0.70654  Biso   1.000  Ni  0.911838
  Ni4      1.0000 0.70654  0.70654  0.20654  Biso   1.000  Ni  0.911835
  Ni5      1.0000 0.79346  0.79346  0.20654  Biso   1.000  Ni  0.911836
  Ni6      1.0000 0.79346  0.29346  0.70654  Biso   1.000  Ni  0.911836
  Ni7      1.0000 0.29346  0.79346  0.70654  Biso   1.000  Ni  0.911837
  Ni8      1.0000 0.29346  0.29346  0.20654  Biso   1.000  Ni  0.911836
  Ni9      1.0000 0.79346  0.20654  0.79346  Biso   1.000  Ni  0.911837
  Ni10     1.0000 0.79346  0.70654  0.29346  Biso   1.000  Ni  0.911836
  Ni11     1.0000 0.29346  0.20654  0.29346  Biso   1.000  Ni  0.911835
  Ni12     1.0000 0.29346  0.70654  0.79346  Biso   1.000  Ni  0.911836
  Ni13     1.0000 0.20654  0.79346  0.79346  Biso   1.000  Ni  0.911835
  Ni14     1.0000 0.20654  0.29346  0.29346  Biso   1.000  Ni  0.911835
  Ni15     1.0000 0.70654  0.79346  0.29346  Biso   1.000  Ni  0.911838
  Ni16     1.0000 0.70654  0.29346  0.79346  Biso   1.000  Ni  0.911835
  Ni17     1.0000 0.20654  0.20654  0.79346  Biso   1.000  Ni  0.911834
  Ni18     1.0000 0.20654  0.70654  0.29346  Biso   1.000  Ni  0.911835
  Ni19     1.0000 0.70654  0.20654  0.29346  Biso   1.000  Ni  0.911836
  Ni20     1.0000 0.70654  0.70654  0.79346  Biso   1.000  Ni  0.911836
  Ni21     1.0000 0.79346  0.79346  0.79346  Biso   1.000  Ni  0.911836
  Ni22     1.0000 0.79346  0.29346  0.29346  Biso   1.000  Ni  0.911836
  Ni23     1.0000 0.29346  0.79346  0.29346  Biso   1.000  Ni  0.911836
  Ni24     1.0000 0.29346  0.29346  0.79346  Biso   1.000  Ni  0.911836
  Ni25     1.0000 0.20654  0.79346  0.20654  Biso   1.000  Ni  0.911839
  Ni26     1.0000 0.20654  0.29346  0.70654  Biso   1.000  Ni  0.911834
  Ni27     1.0000 0.70654  0.79346  0.70654  Biso   1.000  Ni  0.911837
  Ni28     1.0000 0.70654  0.29346  0.20654  Biso   1.000  Ni  0.911836
  Ni29     1.0000 0.79346  0.20654  0.20654  Biso   1.000  Ni  0.911838
  Ni30     1.0000 0.79346  0.70654  0.70654  Biso   1.000  Ni  0.911836
  Ni31     1.0000 0.29346  0.20654  0.70654  Biso   1.000  Ni  0.911833
  Ni32     1.0000 0.29346  0.70654  0.20654  Biso   1.000  Ni  0.911836
  O1       1.0000 0.25000  0.25000  0.25000  Biso   1.000  O  -0.986964
  O2       1.0000 0.75000  0.75000  0.25000  Biso   1.000  O  -0.986965
  O3       1.0000 0.75000  0.25000  0.75000  Biso   1.000  O  -0.986967
  O4       1.0000 0.25000  0.75000  0.75000  Biso   1.000  O  -0.986964
  O5       1.0000 0.25000  0.25000  0.75000  Biso   1.000  O  -0.986965
  O6       1.0000 0.75000  0.75000  0.75000  Biso   1.000  O  -0.986966
  O7       1.0000 0.75000  0.25000  0.25000  Biso   1.000  O  -0.986966
  O8       1.0000 0.25000  0.75000  0.25000  Biso   1.000  O  -0.986967
  O9       1.0000 0.21893  0.21893  0.13338  Biso   1.000  O  -0.536501
  O10      1.0000 0.21893  0.71893  0.63338  Biso   1.000  O  -0.536501
  O11      1.0000 0.71893  0.21893  0.63338  Biso   1.000  O  -0.536502
  O12      1.0000 0.71893  0.71893  0.13338  Biso   1.000  O  -0.536501
  O13      1.0000 0.78107  0.78107  0.13338  Biso   1.000  O  -0.536501
  O14      1.0000 0.78107  0.28107  0.63338  Biso   1.000  O  -0.536501
  O15      1.0000 0.28107  0.78107  0.63338  Biso   1.000  O  -0.536502
  O16      1.0000 0.28107  0.28107  0.13338  Biso   1.000  O  -0.536502
  O17      1.0000 0.78107  0.21893  0.86662  Biso   1.000  O  -0.536501
  O18      1.0000 0.78107  0.71893  0.36662  Biso   1.000  O  -0.536501
  O19      1.0000 0.28107  0.21893  0.36662  Biso   1.000  O  -0.536502
  O20      1.0000 0.28107  0.71893  0.86662  Biso   1.000  O  -0.536501
  O21      1.0000 0.21893  0.78107  0.86662  Biso   1.000  O  -0.536501
  O22      1.0000 0.21893  0.28107  0.36662  Biso   1.000  O  -0.536502
  O23      1.0000 0.71893  0.78107  0.36662  Biso   1.000  O  -0.536501
  O24      1.0000 0.71893  0.28107  0.86662  Biso   1.000  O  -0.536501
  O25      1.0000 0.13338  0.21893  0.21893  Biso   1.000  O  -0.536501
  O26      1.0000 0.13338  0.71893  0.71893  Biso   1.000  O  -0.536501
  O27      1.0000 0.63338  0.21893  0.71893  Biso   1.000  O  -0.536502
  O28      1.0000 0.63338  0.71893  0.21893  Biso   1.000  O  -0.536501
  O29      1.0000 0.13338  0.78107  0.78107  Biso   1.000  O  -0.536501
  O30      1.0000 0.13338  0.28107  0.28107  Biso   1.000  O  -0.536501
  O31      1.0000 0.63338  0.78107  0.28107  Biso   1.000  O  -0.536501
  O32      1.0000 0.63338  0.28107  0.78107  Biso   1.000  O  -0.536501
  O33      1.0000 0.86662  0.78107  0.21893  Biso   1.000  O  -0.536501
  O34      1.0000 0.86662  0.28107  0.71893  Biso   1.000  O  -0.536501
  O35      1.0000 0.36662  0.78107  0.71893  Biso   1.000  O  -0.536501
  O36      1.0000 0.36662  0.28107  0.21893  Biso   1.000  O  -0.536502
  O37      1.0000 0.86662  0.21893  0.78107  Biso   1.000  O  -0.536501
  O38      1.0000 0.86662  0.71893  0.28107  Biso   1.000  O  -0.536501
  O39      1.0000 0.36662  0.21893  0.28107  Biso   1.000  O  -0.536501
  O40      1.0000 0.36662  0.71893  0.78107  Biso   1.000  O  -0.536501
  O41      1.0000 0.21893  0.13338  0.21893  Biso   1.000  O  -0.536501
  O42      1.0000 0.21893  0.63338  0.71893  Biso   1.000  O  -0.536502
  O43      1.0000 0.71893  0.13338  0.71893  Biso   1.000  O  -0.536502
  O44      1.0000 0.71893  0.63338  0.21893  Biso   1.000  O  -0.536501
  O45      1.0000 0.78107  0.13338  0.78107  Biso   1.000  O  -0.536501
  O46      1.0000 0.78107  0.63338  0.28107  Biso   1.000  O  -0.536501
  O47      1.0000 0.28107  0.13338  0.28107  Biso   1.000  O  -0.536501
  O48      1.0000 0.28107  0.63338  0.78107  Biso   1.000  O  -0.536501
  O49      1.0000 0.21893  0.86662  0.78107  Biso   1.000  O  -0.536501
  O50      1.0000 0.21893  0.36662  0.28107  Biso   1.000  O  -0.536502
  O51      1.0000 0.71893  0.86662  0.28107  Biso   1.000  O  -0.536501
  O52      1.0000 0.71893  0.36662  0.78107  Biso   1.000  O  -0.536501
  O53      1.0000 0.78107  0.86662  0.21893  Biso   1.000  O  -0.536501
  O54      1.0000 0.78107  0.36662  0.71893  Biso   1.000  O  -0.536501
  O55      1.0000 0.28107  0.86662  0.71893  Biso   1.000  O  -0.536501
  O56      1.0000 0.28107  0.36662  0.21893  Biso   1.000  O  -0.536501
  O57      1.0000 0.21893  0.21893  0.86662  Biso   1.000  O  -0.536501
  O58      1.0000 0.21893  0.71893  0.36662  Biso   1.000  O  -0.536501
  O59      1.0000 0.71893  0.21893  0.36662  Biso   1.000  O  -0.536501
  O60      1.0000 0.71893  0.71893  0.86662  Biso   1.000  O  -0.536502
  O61      1.0000 0.78107  0.78107  0.86662  Biso   1.000  O  -0.536501
  O62      1.0000 0.78107  0.28107  0.36662  Biso   1.000  O  -0.536501
  O63      1.0000 0.28107  0.78107  0.36662  Biso   1.000  O  -0.536501
  O64      1.0000 0.28107  0.28107  0.86662  Biso   1.000  O  -0.536501
  O65      1.0000 0.21893  0.78107  0.13338  Biso   1.000  O  -0.536502
  O66      1.0000 0.21893  0.28107  0.63338  Biso   1.000  O  -0.536501
  O67      1.0000 0.71893  0.78107  0.63338  Biso   1.000  O  -0.536502
  O68      1.0000 0.71893  0.28107  0.13338  Biso   1.000  O  -0.536501
  O69      1.0000 0.78107  0.21893  0.13338  Biso   1.000  O  -0.536501
  O70      1.0000 0.78107  0.71893  0.63338  Biso   1.000  O  -0.536501
  O71      1.0000 0.28107  0.21893  0.63338  Biso   1.000  O  -0.536501
  O72      1.0000 0.28107  0.71893  0.13338  Biso   1.000  O  -0.536501
  O73      1.0000 0.21893  0.13338  0.78107  Biso   1.000  O  -0.536501
  O74      1.0000 0.21893  0.63338  0.28107  Biso   1.000  O  -0.536501
  O75      1.0000 0.71893  0.13338  0.28107  Biso   1.000  O  -0.536501
  O76      1.0000 0.71893  0.63338  0.78107  Biso   1.000  O  -0.536501
  O77      1.0000 0.78107  0.13338  0.21893  Biso   1.000  O  -0.536501
  O78      1.0000 0.78107  0.63338  0.71893  Biso   1.000  O  -0.536501
  O79      1.0000 0.28107  0.13338  0.71893  Biso   1.000  O  -0.536501
  O80      1.0000 0.28107  0.63338  0.21893  Biso   1.000  O  -0.536501
  O81      1.0000 0.78107  0.86662  0.78107  Biso   1.000  O  -0.536501
  O82      1.0000 0.78107  0.36662  0.28107  Biso   1.000  O  -0.536501
  O83      1.0000 0.28107  0.86662  0.28107  Biso   1.000  O  -0.536501
  O84      1.0000 0.28107  0.36662  0.78107  Biso   1.000  O  -0.536501
  O85      1.0000 0.21893  0.86662  0.21893  Biso   1.000  O  -0.536502
  O86      1.0000 0.21893  0.36662  0.71893  Biso   1.000  O  -0.536501
  O87      1.0000 0.71893  0.86662  0.71893  Biso   1.000  O  -0.536501
  O88      1.0000 0.71893  0.36662  0.21893  Biso   1.000  O  -0.536501
  O89      1.0000 0.13338  0.21893  0.78107  Biso   1.000  O  -0.536501
  O90      1.0000 0.13338  0.71893  0.28107  Biso   1.000  O  -0.536501
  O91      1.0000 0.63338  0.21893  0.28107  Biso   1.000  O  -0.536501
  O92      1.0000 0.63338  0.71893  0.78107  Biso   1.000  O  -0.536501
  O93      1.0000 0.13338  0.78107  0.21893  Biso   1.000  O  -0.536502
  O94      1.0000 0.13338  0.28107  0.71893  Biso   1.000  O  -0.536501
  O95      1.0000 0.63338  0.78107  0.71893  Biso   1.000  O  -0.536501
  O96      1.0000 0.63338  0.28107  0.21893  Biso   1.000  O  -0.536501
  O97      1.0000 0.86662  0.21893  0.21893  Biso   1.000  O  -0.536501
  O98      1.0000 0.86662  0.71893  0.71893  Biso   1.000  O  -0.536501
  O99      1.0000 0.36662  0.21893  0.71893  Biso   1.000  O  -0.536501
  O100     1.0000 0.36662  0.71893  0.21893  Biso   1.000  O  -0.536501
  O101     1.0000 0.86662  0.78107  0.78107  Biso   1.000  O  -0.536502
  O102     1.0000 0.86662  0.28107  0.28107  Biso   1.000  O  -0.536501
  O103     1.0000 0.36662  0.78107  0.28107  Biso   1.000  O  -0.536501
  O104     1.0000 0.36662  0.28107  0.78107  Biso   1.000  O  -0.536501
