
##########################################################################
#               Crystallographic Information Format file
#               Produced by PyCifRW module
#
#  This is a CIF file.  CIF has been adopted by the International
#  Union of Crystallography as the standard for data archiving and
#  transmission.
#
#  For information on this file format, follow the CIF links at
#  http://www.iucr.org
##########################################################################

data_image0

_cell_length_a                          12.9376
_cell_length_b                          12.9376
_cell_length_c                          14.1621
_cell_angle_alpha                       85.0581
_cell_angle_beta                        85.0581
_cell_angle_gamma                       89.5963
_symmetry_space_group_name_H-M          'P 1'
_symmetry_int_tables_number             1
loop_
  _symmetry_equiv_pos_as_xyz
         'x, y, z' 
loop_
  _atom_site_label
  _atom_site_occupancy
  _atom_site_fract_x
  _atom_site_fract_y
  _atom_site_fract_z
  _atom_site_thermal_displace_type
  _atom_site_B_iso_or_equiv
  _atom_site_type_symbol
  _atom_site_charge
         C1        1.0000    0.46440   0.85800   0.52920   Biso      1.000     C          -0.053381           
         C2        1.0000    0.35780   0.86040   0.53310   Biso      1.000     C          -0.101359           
         C3        1.0000    0.10260   0.70220   0.39160   Biso      1.000     C          -0.036502           
         C4        1.0000    0.86040   0.35780   0.53310   Biso      1.000     C          -0.099726           
         C5        1.0000    0.93210   0.45710   0.67940   Biso      1.000     C          -0.110909           
         C6        1.0000    0.03740   0.03740   0.08040   Biso      1.000     C          -0.02802  
         C7        1.0000    0.10380   0.48460   0.39780   Biso      1.000     C          -0.039992           
         C8        1.0000    0.51540   0.89620   0.60220   Biso      1.000     C          -0.039986           
         C9        1.0000    0.64830   0.06930   0.31800   Biso      1.000     C          0.023278  
         C10       1.0000    0.35170   0.93070   0.68200   Biso      1.000     C          0.023331  
         C11       1.0000    0.95250   0.08410   0.04020   Biso      1.000     C          -0.076695           
         C12       1.0000    0.90010   0.63110   0.59690   Biso      1.000     C          0.618635  
         C13       1.0000    0.93020   0.93020   0.82900   Biso      1.000     C          0.611176  
         C14       1.0000    0.89820   0.18180   0.60760   Biso      1.000     C          0.620679  
         C15       1.0000    0.36890   0.09990   0.40310   Biso      1.000     C          0.618585  
         C16       1.0000    0.45710   0.93210   0.67940   Biso      1.000     C          -0.111023           
         C17       1.0000    0.48460   0.10380   0.39780   Biso      1.000     C          -0.040035           
         C18       1.0000    0.10180   0.81820   0.39240   Biso      1.000     C          0.620367  
         C19       1.0000    0.96260   0.96260   0.91960   Biso      1.000     C          -0.028038999999999998         
         C20       1.0000    0.04750   0.91590   0.95980   Biso      1.000     C          -0.076474           
         C21       1.0000    0.18180   0.89820   0.60760   Biso      1.000     C          0.6203960000000001  
         C22       1.0000    0.08410   0.95250   0.04020   Biso      1.000     C          -0.076473           
         C23       1.0000    0.06930   0.64830   0.31800   Biso      1.000     C          0.023331  
         C24       1.0000    0.06980   0.06980   0.17100   Biso      1.000     C          0.611171  
         C25       1.0000    0.54290   0.06790   0.32060   Biso      1.000     C          -0.11104800000000001          
         C26       1.0000    0.06790   0.54290   0.32060   Biso      1.000     C          -0.111074           
         C27       1.0000    0.89740   0.29780   0.60840   Biso      1.000     C          -0.035592           
         C28       1.0000    0.64220   0.13960   0.46690   Biso      1.000     C          -0.10144600000000001          
         C29       1.0000    0.13960   0.64220   0.46690   Biso      1.000     C          -0.101375           
         C30       1.0000    0.63110   0.90010   0.59690   Biso      1.000     C          0.618594  
         C31       1.0000    0.09990   0.36890   0.40310   Biso      1.000     C          0.6185609999999999  
         C32       1.0000    0.91590   0.04750   0.95980   Biso      1.000     C          -0.076692           
         C33       1.0000    0.89620   0.51540   0.60220   Biso      1.000     C          -0.040503           
         C34       1.0000    0.14200   0.53560   0.47080   Biso      1.000     C          -0.053355999999999994         
         C35       1.0000    0.81820   0.10180   0.39240   Biso      1.000     C          0.620596  
         C36       1.0000    0.93070   0.35170   0.68200   Biso      1.000     C          0.023683000000000003          
         C37       1.0000    0.70220   0.10260   0.39160   Biso      1.000     C          -0.036466000000000005         
         C38       1.0000    0.85800   0.46440   0.52920   Biso      1.000     C          -0.05531900000000001          
         C39       1.0000    0.53560   0.14200   0.47080   Biso      1.000     C          -0.053463           
         C40       1.0000    0.29780   0.89740   0.60840   Biso      1.000     C          -0.036511           
         H1        1.0000    0.16878   0.68394   0.52714   Biso      1.000     H          0.11334000000000001           
         H2        1.0000    0.08752   0.84719   0.92684   Biso      1.000     H          0.104905  
         H3        1.0000    0.82502   0.51118   0.46675   Biso      1.000     H          0.115165  
         H4        1.0000    0.17503   0.48908   0.53336   Biso      1.000     H          0.11539200000000001           
         H5        1.0000    0.48908   0.17503   0.53336   Biso      1.000     H          0.11536199999999999           
         H6        1.0000    0.84722   0.08712   0.92644   Biso      1.000     H          0.10528699999999999           
         H7        1.0000    0.68394   0.16878   0.52714   Biso      1.000     H          0.113428  
         H8        1.0000    0.15281   0.91248   0.07316   Biso      1.000     H          0.10490999999999999           
         H9        1.0000    0.31606   0.83122   0.47286   Biso      1.000     H          0.11333499999999999           
         H10       1.0000    0.51092   0.82497   0.46664   Biso      1.000     H          0.115381  
         H11       1.0000    0.83049   0.31915   0.47140   Biso      1.000     H          0.113396  
         H12       1.0000    0.96242   0.49747   0.73993   Biso      1.000     H          0.140577  
         H13       1.0000    0.91288   0.15278   0.07356   Biso      1.000     H          0.10528199999999999           
         H14       1.0000    0.49659   0.96260   0.74036   Biso      1.000     H          0.14044500000000001           
         H15       1.0000    0.03740   0.50341   0.25964   Biso      1.000     H          0.14041700000000001           
         H16       1.0000    0.50341   0.03740   0.25964   Biso      1.000     H          0.140431  
         N1        1.0000    0.29320   0.96500   0.76560   Biso      1.000     N          0.5624140000000001  
         N2        1.0000    0.70680   0.03500   0.23440   Biso      1.000     N          0.5624279999999999  
         N3        1.0000    0.96500   0.29320   0.76560   Biso      1.000     N          0.562361  
         N4        1.0000    0.03500   0.70680   0.23440   Biso      1.000     N          0.562405  
         O1        1.0000    0.31899   0.14703   0.46520   Biso      1.000     O          -0.570437           
         O2        1.0000    0.85913   0.02093   0.42380   Biso      1.000     O          -0.579106           
         O3        1.0000    0.13603   0.81351   0.63420   Biso      1.000     O          -0.527153           
         O4        1.0000    0.97960   0.85460   0.79370   Biso      1.000     O          -0.543804           
         O5        1.0000    0.09276   0.09276   0.41630   Biso      1.000     O          -1.007681           
         O6        1.0000    0.18649   0.86397   0.36580   Biso      1.000     O          -0.527105           
         O7        1.0000    0.99040   0.34000   0.82900   Biso      1.000     O          -0.355057           
         O8        1.0000    0.03710   0.79810   0.22570   Biso      1.000     O          -0.31175  
         O9        1.0000    0.14703   0.31899   0.46520   Biso      1.000     O          -0.570397           
         O10       1.0000    0.90724   0.90724   0.58370   Biso      1.000     O          -1.007695           
         O11       1.0000    0.85297   0.68101   0.53480   Biso      1.000     O          -0.5702510000000001           
         O12       1.0000    0.79810   0.03710   0.22570   Biso      1.000     O          -0.31180399999999997          
         O13       1.0000    0.86397   0.18649   0.36580   Biso      1.000     O          -0.5276350000000001           
         O14       1.0000    0.02093   0.85913   0.42380   Biso      1.000     O          -0.578962           
         O15       1.0000    0.34000   0.99040   0.82900   Biso      1.000     O          -0.355173           
         O16       1.0000    0.81351   0.13603   0.63420   Biso      1.000     O          -0.52713  
         O17       1.0000    0.20190   0.96290   0.77430   Biso      1.000     O          -0.311788           
         O18       1.0000    0.97907   0.14087   0.57620   Biso      1.000     O          -0.579023           
         O19       1.0000    0.96290   0.20190   0.77430   Biso      1.000     O          -0.311862           
         O20       1.0000    0.95294   0.66792   0.65880   Biso      1.000     O          -0.529886           
         O21       1.0000    0.66000   0.00960   0.17100   Biso      1.000     O          -0.3552   
         O22       1.0000    0.68101   0.85297   0.53480   Biso      1.000     O          -0.570437           
         O23       1.0000    0.02040   0.14540   0.20630   Biso      1.000     O          -0.54382  
         O24       1.0000    0.66792   0.95294   0.65880   Biso      1.000     O          -0.529881           
         O25       1.0000    0.04706   0.33208   0.34120   Biso      1.000     O          -0.530014           
         O26       1.0000    0.85460   0.97960   0.79370   Biso      1.000     O          -0.543816           
         O27       1.0000    0.00960   0.66000   0.17100   Biso      1.000     O          -0.35519  
         O28       1.0000    0.14087   0.97907   0.57620   Biso      1.000     O          -0.578958           
         O29       1.0000    0.14540   0.02040   0.20630   Biso      1.000     O          -0.5437810000000001           
         O30       1.0000    0.33208   0.04706   0.34120   Biso      1.000     O          -0.529888           
         Zn1       1.0000    0.81264   0.98276   0.66483   Biso      1.000     Zn          0.9558620000000001  
         Zn2       1.0000    0.00000   0.00000   0.50000   Biso      1.000     Zn          1.009284  
         Zn3       1.0000    0.83416   0.83416   0.49486   Biso      1.000     Zn          1.0821530000000001  
         Zn4       1.0000    0.18736   0.01724   0.33517   Biso      1.000     Zn          0.955831  
         Zn5       1.0000    0.98276   0.81264   0.66483   Biso      1.000     Zn          0.955788  
         Zn6       1.0000    0.16584   0.16584   0.50514   Biso      1.000     Zn          1.082211  
         Zn7       1.0000    0.01724   0.18736   0.33517   Biso      1.000     Zn          0.9559719999999999 