data_image0
_cell_length_a       20.123
_cell_length_b       20.123
_cell_length_c       20.123
_cell_angle_alpha    90
_cell_angle_beta     90
_cell_angle_gamma    90

_symmetry_space_group_name_H-M    "P 1"
_symmetry_int_tables_number       1

loop_
  _symmetry_equiv_pos_as_xyz
  'x, y, z'

loop_
  _atom_site_label
  _atom_site_occupancy
  _atom_site_fract_x
  _atom_site_fract_y
  _atom_site_fract_z
  _atom_site_thermal_displace_type
  _atom_site_B_iso_or_equiv
  _atom_site_type_symbol
  _atom_site_charge
  C1       1.0000 0.47960  0.25000  0.19930  Biso   1.000  C  0.572353
  C2       1.0000 0.59990  0.23180  0.15780  Biso   1.000  C  -0.005358
  C3       1.0000 0.55130  0.26340  0.19580  Biso   1.000  C  -0.126380
  C4       1.0000 0.58720  0.31000  0.23190  Biso   1.000  C  0.000529
  C5       1.0000 0.02040  0.75000  0.69930  Biso   1.000  C  0.572352
  C6       1.0000 0.90010  0.76820  0.65780  Biso   1.000  C  -0.005358
  C7       1.0000 0.94870  0.73660  0.69580  Biso   1.000  C  -0.126380
  C8       1.0000 0.91280  0.69000  0.73190  Biso   1.000  C  0.000529
  C9       1.0000 0.52040  0.75000  0.30070  Biso   1.000  C  0.572352
  C10      1.0000 0.40010  0.73180  0.34220  Biso   1.000  C  -0.005358
  C11      1.0000 0.44870  0.76340  0.30420  Biso   1.000  C  -0.126379
  C12      1.0000 0.41280  0.81000  0.26810  Biso   1.000  C  0.000529
  C13      1.0000 0.97960  0.25000  0.80070  Biso   1.000  C  0.572353
  C14      1.0000 0.09990  0.26820  0.84220  Biso   1.000  C  -0.005358
  C15      1.0000 0.05130  0.23660  0.80420  Biso   1.000  C  -0.126380
  C16      1.0000 0.08720  0.19000  0.76810  Biso   1.000  C  0.000529
  C17      1.0000 0.19930  0.47960  0.25000  Biso   1.000  C  0.572352
  C18      1.0000 0.15780  0.59990  0.23180  Biso   1.000  C  -0.005358
  C19      1.0000 0.19580  0.55130  0.26340  Biso   1.000  C  -0.126380
  C20      1.0000 0.23190  0.58720  0.31000  Biso   1.000  C  0.000528
  C21      1.0000 0.69930  0.02040  0.75000  Biso   1.000  C  0.572353
  C22      1.0000 0.65780  0.90010  0.76820  Biso   1.000  C  -0.005358
  C23      1.0000 0.69580  0.94870  0.73660  Biso   1.000  C  -0.126380
  C24      1.0000 0.73190  0.91280  0.69000  Biso   1.000  C  0.000528
  C25      1.0000 0.30070  0.52040  0.75000  Biso   1.000  C  0.572352
  C26      1.0000 0.34220  0.40010  0.73180  Biso   1.000  C  -0.005358
  C27      1.0000 0.30420  0.44870  0.76340  Biso   1.000  C  -0.126380
  C28      1.0000 0.26810  0.41280  0.81000  Biso   1.000  C  0.000528
  C29      1.0000 0.80070  0.97960  0.25000  Biso   1.000  C  0.572352
  C30      1.0000 0.84220  0.09990  0.26820  Biso   1.000  C  -0.005358
  C31      1.0000 0.80420  0.05130  0.23660  Biso   1.000  C  -0.126380
  C32      1.0000 0.76810  0.08720  0.19000  Biso   1.000  C  0.000528
  C33      1.0000 0.25000  0.19930  0.47960  Biso   1.000  C  0.572352
  C34      1.0000 0.23180  0.15780  0.59990  Biso   1.000  C  -0.005359
  C35      1.0000 0.26340  0.19580  0.55130  Biso   1.000  C  -0.126380
  C36      1.0000 0.31000  0.23190  0.58720  Biso   1.000  C  0.000528
  C37      1.0000 0.75000  0.69930  0.02040  Biso   1.000  C  0.572352
  C38      1.0000 0.76820  0.65780  0.90010  Biso   1.000  C  -0.005359
  C39      1.0000 0.73660  0.69580  0.94870  Biso   1.000  C  -0.126380
  C40      1.0000 0.69000  0.73190  0.91280  Biso   1.000  C  0.000528
  C41      1.0000 0.75000  0.30070  0.52040  Biso   1.000  C  0.572353
  C42      1.0000 0.73180  0.34220  0.40010  Biso   1.000  C  -0.005359
  C43      1.0000 0.76340  0.30420  0.44870  Biso   1.000  C  -0.126381
  C44      1.0000 0.81000  0.26810  0.41280  Biso   1.000  C  0.000528
  C45      1.0000 0.25000  0.80070  0.97960  Biso   1.000  C  0.572352
  C46      1.0000 0.26820  0.84220  0.09990  Biso   1.000  C  -0.005359
  C47      1.0000 0.23660  0.80420  0.05130  Biso   1.000  C  -0.126380
  C48      1.0000 0.19000  0.76810  0.08720  Biso   1.000  C  0.000528
  C49      1.0000 0.52040  0.75000  0.80070  Biso   1.000  C  0.572351
  C50      1.0000 0.40010  0.76820  0.84220  Biso   1.000  C  -0.005359
  C51      1.0000 0.44870  0.73660  0.80420  Biso   1.000  C  -0.126380
  C52      1.0000 0.41280  0.69000  0.76810  Biso   1.000  C  0.000528
  C53      1.0000 0.97960  0.25000  0.30070  Biso   1.000  C  0.572352
  C54      1.0000 0.09990  0.23180  0.34220  Biso   1.000  C  -0.005359
  C55      1.0000 0.05130  0.26340  0.30420  Biso   1.000  C  -0.126380
  C56      1.0000 0.08720  0.31000  0.26810  Biso   1.000  C  0.000529
  C57      1.0000 0.47960  0.25000  0.69930  Biso   1.000  C  0.572352
  C58      1.0000 0.59990  0.26820  0.65780  Biso   1.000  C  -0.005359
  C59      1.0000 0.55130  0.23660  0.69580  Biso   1.000  C  -0.126380
  C60      1.0000 0.58720  0.19000  0.73190  Biso   1.000  C  0.000529
  C61      1.0000 0.02040  0.75000  0.19930  Biso   1.000  C  0.572351
  C62      1.0000 0.90010  0.73180  0.15780  Biso   1.000  C  -0.005359
  C63      1.0000 0.94870  0.76340  0.19580  Biso   1.000  C  -0.126379
  C64      1.0000 0.91280  0.81000  0.23190  Biso   1.000  C  0.000528
  C65      1.0000 0.80070  0.52040  0.75000  Biso   1.000  C  0.572351
  C66      1.0000 0.84220  0.40010  0.76820  Biso   1.000  C  -0.005359
  C67      1.0000 0.80420  0.44870  0.73660  Biso   1.000  C  -0.126380
  C68      1.0000 0.76810  0.41280  0.69000  Biso   1.000  C  0.000528
  C69      1.0000 0.30070  0.97960  0.25000  Biso   1.000  C  0.572352
  C70      1.0000 0.34220  0.09990  0.23180  Biso   1.000  C  -0.005359
  C71      1.0000 0.30420  0.05130  0.26340  Biso   1.000  C  -0.126380
  C72      1.0000 0.26810  0.08720  0.31000  Biso   1.000  C  0.000528
  C73      1.0000 0.69930  0.47960  0.25000  Biso   1.000  C  0.572352
  C74      1.0000 0.65780  0.59990  0.26820  Biso   1.000  C  -0.005359
  C75      1.0000 0.69580  0.55130  0.23660  Biso   1.000  C  -0.126380
  C76      1.0000 0.73190  0.58720  0.19000  Biso   1.000  C  0.000527
  C77      1.0000 0.19930  0.02040  0.75000  Biso   1.000  C  0.572352
  C78      1.0000 0.15780  0.90010  0.73180  Biso   1.000  C  -0.005359
  C79      1.0000 0.19580  0.94870  0.76340  Biso   1.000  C  -0.126380
  C80      1.0000 0.23190  0.91280  0.81000  Biso   1.000  C  0.000528
  C81      1.0000 0.75000  0.80070  0.52040  Biso   1.000  C  0.572351
  C82      1.0000 0.76820  0.84220  0.40010  Biso   1.000  C  -0.005359
  C83      1.0000 0.73660  0.80420  0.44870  Biso   1.000  C  -0.126379
  C84      1.0000 0.69000  0.76810  0.41280  Biso   1.000  C  0.000528
  C85      1.0000 0.25000  0.30070  0.97960  Biso   1.000  C  0.572352
  C86      1.0000 0.23180  0.34220  0.09990  Biso   1.000  C  -0.005359
  C87      1.0000 0.26340  0.30420  0.05130  Biso   1.000  C  -0.126380
  C88      1.0000 0.31000  0.26810  0.08720  Biso   1.000  C  0.000528
  C89      1.0000 0.25000  0.69930  0.47960  Biso   1.000  C  0.572351
  C90      1.0000 0.26820  0.65780  0.59990  Biso   1.000  C  -0.005360
  C91      1.0000 0.23660  0.69580  0.55130  Biso   1.000  C  -0.126380
  C92      1.0000 0.19000  0.73190  0.58720  Biso   1.000  C  0.000528
  C93      1.0000 0.75000  0.19930  0.02040  Biso   1.000  C  0.572352
  C94      1.0000 0.73180  0.15780  0.90010  Biso   1.000  C  -0.005359
  C95      1.0000 0.76340  0.19580  0.94870  Biso   1.000  C  -0.126381
  C96      1.0000 0.81000  0.23190  0.91280  Biso   1.000  C  0.000528
  H1       1.0000 0.59180  0.19730  0.12810  Biso   1.000  H  0.129786
  H2       1.0000 0.56900  0.33910  0.26280  Biso   1.000  H  0.129289
  H3       1.0000 0.90820  0.80270  0.62810  Biso   1.000  H  0.129786
  H4       1.0000 0.93100  0.66090  0.76280  Biso   1.000  H  0.129289
  H5       1.0000 0.40820  0.69730  0.37190  Biso   1.000  H  0.129786
  H6       1.0000 0.43100  0.83910  0.23720  Biso   1.000  H  0.129288
  H7       1.0000 0.09180  0.30270  0.87190  Biso   1.000  H  0.129786
  H8       1.0000 0.06900  0.16090  0.73720  Biso   1.000  H  0.129289
  H9       1.0000 0.12810  0.59180  0.19730  Biso   1.000  H  0.129786
  H10      1.0000 0.26280  0.56900  0.33910  Biso   1.000  H  0.129289
  H11      1.0000 0.62810  0.90820  0.80270  Biso   1.000  H  0.129786
  H12      1.0000 0.76280  0.93100  0.66090  Biso   1.000  H  0.129288
  H13      1.0000 0.37190  0.40820  0.69730  Biso   1.000  H  0.129787
  H14      1.0000 0.23720  0.43100  0.83910  Biso   1.000  H  0.129289
  H15      1.0000 0.87190  0.09180  0.30270  Biso   1.000  H  0.129786
  H16      1.0000 0.73720  0.06900  0.16090  Biso   1.000  H  0.129289
  H17      1.0000 0.19730  0.12810  0.59180  Biso   1.000  H  0.129786
  H18      1.0000 0.33910  0.26280  0.56900  Biso   1.000  H  0.129289
  H19      1.0000 0.80270  0.62810  0.90820  Biso   1.000  H  0.129786
  H20      1.0000 0.66090  0.76280  0.93100  Biso   1.000  H  0.129288
  H21      1.0000 0.69730  0.37190  0.40820  Biso   1.000  H  0.129786
  H22      1.0000 0.83910  0.23720  0.43100  Biso   1.000  H  0.129288
  H23      1.0000 0.30270  0.87190  0.09180  Biso   1.000  H  0.129786
  H24      1.0000 0.16090  0.73720  0.06900  Biso   1.000  H  0.129288
  H25      1.0000 0.40820  0.80270  0.87190  Biso   1.000  H  0.129786
  H26      1.0000 0.43100  0.66090  0.73720  Biso   1.000  H  0.129289
  H27      1.0000 0.09180  0.19730  0.37190  Biso   1.000  H  0.129786
  H28      1.0000 0.06900  0.33910  0.23720  Biso   1.000  H  0.129289
  H29      1.0000 0.59180  0.30270  0.62810  Biso   1.000  H  0.129786
  H30      1.0000 0.56900  0.16090  0.76280  Biso   1.000  H  0.129289
  H31      1.0000 0.90820  0.69730  0.12810  Biso   1.000  H  0.129785
  H32      1.0000 0.93100  0.83910  0.26280  Biso   1.000  H  0.129288
  H33      1.0000 0.87190  0.40820  0.80270  Biso   1.000  H  0.129786
  H34      1.0000 0.73720  0.43100  0.66090  Biso   1.000  H  0.129289
  H35      1.0000 0.37190  0.09180  0.19730  Biso   1.000  H  0.129786
  H36      1.0000 0.23720  0.06900  0.33910  Biso   1.000  H  0.129288
  H37      1.0000 0.62810  0.59180  0.30270  Biso   1.000  H  0.129786
  H38      1.0000 0.76280  0.56900  0.16090  Biso   1.000  H  0.129289
  H39      1.0000 0.12810  0.90820  0.69730  Biso   1.000  H  0.129786
  H40      1.0000 0.26280  0.93100  0.83910  Biso   1.000  H  0.129289
  H41      1.0000 0.80270  0.87190  0.40820  Biso   1.000  H  0.129786
  H42      1.0000 0.66090  0.73720  0.43100  Biso   1.000  H  0.129288
  H43      1.0000 0.19730  0.37190  0.09180  Biso   1.000  H  0.129786
  H44      1.0000 0.33910  0.23720  0.06900  Biso   1.000  H  0.129289
  H45      1.0000 0.30270  0.62810  0.59180  Biso   1.000  H  0.129786
  H46      1.0000 0.16090  0.76280  0.56900  Biso   1.000  H  0.129288
  H47      1.0000 0.69730  0.12810  0.90820  Biso   1.000  H  0.129786
  H48      1.0000 0.83910  0.26280  0.93100  Biso   1.000  H  0.129289
  N1       1.0000 0.65100  0.30700  0.21610  Biso   1.000  N  -0.169575
  N2       1.0000 0.65900  0.25760  0.16980  Biso   1.000  N  -0.169553
  N3       1.0000 0.84900  0.69300  0.71610  Biso   1.000  N  -0.169575
  N4       1.0000 0.84100  0.74240  0.66980  Biso   1.000  N  -0.169553
  N5       1.0000 0.34900  0.80700  0.28390  Biso   1.000  N  -0.169575
  N6       1.0000 0.34100  0.75760  0.33020  Biso   1.000  N  -0.169553
  N7       1.0000 0.15100  0.19300  0.78390  Biso   1.000  N  -0.169575
  N8       1.0000 0.15900  0.24240  0.83020  Biso   1.000  N  -0.169553
  N9       1.0000 0.21610  0.65100  0.30700  Biso   1.000  N  -0.169575
  N10      1.0000 0.16980  0.65900  0.25760  Biso   1.000  N  -0.169554
  N11      1.0000 0.71610  0.84900  0.69300  Biso   1.000  N  -0.169575
  N12      1.0000 0.66980  0.84100  0.74240  Biso   1.000  N  -0.169554
  N13      1.0000 0.28390  0.34900  0.80700  Biso   1.000  N  -0.169575
  N14      1.0000 0.33020  0.34100  0.75760  Biso   1.000  N  -0.169554
  N15      1.0000 0.78390  0.15100  0.19300  Biso   1.000  N  -0.169575
  N16      1.0000 0.83020  0.15900  0.24240  Biso   1.000  N  -0.169554
  N17      1.0000 0.30700  0.21610  0.65100  Biso   1.000  N  -0.169575
  N18      1.0000 0.25760  0.16980  0.65900  Biso   1.000  N  -0.169553
  N19      1.0000 0.69300  0.71610  0.84900  Biso   1.000  N  -0.169575
  N20      1.0000 0.74240  0.66980  0.84100  Biso   1.000  N  -0.169553
  N21      1.0000 0.80700  0.28390  0.34900  Biso   1.000  N  -0.169575
  N22      1.0000 0.75760  0.33020  0.34100  Biso   1.000  N  -0.169553
  N23      1.0000 0.19300  0.78390  0.15100  Biso   1.000  N  -0.169575
  N24      1.0000 0.24240  0.83020  0.15900  Biso   1.000  N  -0.169553
  N25      1.0000 0.34900  0.69300  0.78390  Biso   1.000  N  -0.169575
  N26      1.0000 0.34100  0.74240  0.83020  Biso   1.000  N  -0.169553
  N27      1.0000 0.15100  0.30700  0.28390  Biso   1.000  N  -0.169575
  N28      1.0000 0.15900  0.25760  0.33020  Biso   1.000  N  -0.169553
  N29      1.0000 0.65100  0.19300  0.71610  Biso   1.000  N  -0.169575
  N30      1.0000 0.65900  0.24240  0.66980  Biso   1.000  N  -0.169553
  N31      1.0000 0.84900  0.80700  0.21610  Biso   1.000  N  -0.169575
  N32      1.0000 0.84100  0.75760  0.16980  Biso   1.000  N  -0.169553
  N33      1.0000 0.78390  0.34900  0.69300  Biso   1.000  N  -0.169575
  N34      1.0000 0.83020  0.34100  0.74240  Biso   1.000  N  -0.169553
  N35      1.0000 0.28390  0.15100  0.30700  Biso   1.000  N  -0.169575
  N36      1.0000 0.33020  0.15900  0.25760  Biso   1.000  N  -0.169554
  N37      1.0000 0.71610  0.65100  0.19300  Biso   1.000  N  -0.169574
  N38      1.0000 0.66980  0.65900  0.24240  Biso   1.000  N  -0.169554
  N39      1.0000 0.21610  0.84900  0.80700  Biso   1.000  N  -0.169575
  N40      1.0000 0.16980  0.84100  0.75760  Biso   1.000  N  -0.169554
  N41      1.0000 0.69300  0.78390  0.34900  Biso   1.000  N  -0.169575
  N42      1.0000 0.74240  0.83020  0.34100  Biso   1.000  N  -0.169553
  N43      1.0000 0.30700  0.28390  0.15100  Biso   1.000  N  -0.169575
  N44      1.0000 0.25760  0.33020  0.15900  Biso   1.000  N  -0.169553
  N45      1.0000 0.19300  0.71610  0.65100  Biso   1.000  N  -0.169575
  N46      1.0000 0.24240  0.66980  0.65900  Biso   1.000  N  -0.169553
  N47      1.0000 0.80700  0.21610  0.84900  Biso   1.000  N  -0.169575
  N48      1.0000 0.75760  0.16980  0.84100  Biso   1.000  N  -0.169553
  O1       1.0000 0.44670  0.28270  0.24230  Biso   1.000  O  -0.475461
  O2       1.0000 0.45320  0.20720  0.16380  Biso   1.000  O  -0.441446
  O3       1.0000 0.05330  0.71730  0.74230  Biso   1.000  O  -0.475461
  O4       1.0000 0.04680  0.79280  0.66380  Biso   1.000  O  -0.441445
  O5       1.0000 0.55330  0.78270  0.25770  Biso   1.000  O  -0.475461
  O6       1.0000 0.54680  0.70720  0.33620  Biso   1.000  O  -0.441445
  O7       1.0000 0.94670  0.21730  0.75770  Biso   1.000  O  -0.475462
  O8       1.0000 0.95320  0.29280  0.83620  Biso   1.000  O  -0.441446
  O9       1.0000 0.24230  0.44670  0.28270  Biso   1.000  O  -0.475461
  O10      1.0000 0.16380  0.45320  0.20720  Biso   1.000  O  -0.441446
  O11      1.0000 0.74230  0.05330  0.71730  Biso   1.000  O  -0.475461
  O12      1.0000 0.66380  0.04680  0.79280  Biso   1.000  O  -0.441446
  O13      1.0000 0.25770  0.55330  0.78270  Biso   1.000  O  -0.475461
  O14      1.0000 0.33620  0.54680  0.70720  Biso   1.000  O  -0.441446
  O15      1.0000 0.75770  0.94670  0.21730  Biso   1.000  O  -0.475461
  O16      1.0000 0.83620  0.95320  0.29280  Biso   1.000  O  -0.441446
  O17      1.0000 0.28270  0.24230  0.44670  Biso   1.000  O  -0.475461
  O18      1.0000 0.20720  0.16380  0.45320  Biso   1.000  O  -0.441446
  O19      1.0000 0.71730  0.74230  0.05330  Biso   1.000  O  -0.475461
  O20      1.0000 0.79280  0.66380  0.04680  Biso   1.000  O  -0.441446
  O21      1.0000 0.78270  0.25770  0.55330  Biso   1.000  O  -0.475461
  O22      1.0000 0.70720  0.33620  0.54680  Biso   1.000  O  -0.441446
  O23      1.0000 0.21730  0.75770  0.94670  Biso   1.000  O  -0.475461
  O24      1.0000 0.29280  0.83620  0.95320  Biso   1.000  O  -0.441445
  O25      1.0000 0.55330  0.71730  0.75770  Biso   1.000  O  -0.475461
  O26      1.0000 0.54680  0.79280  0.83620  Biso   1.000  O  -0.441445
  O27      1.0000 0.94670  0.28270  0.25770  Biso   1.000  O  -0.475461
  O28      1.0000 0.95320  0.20720  0.33620  Biso   1.000  O  -0.441446
  O29      1.0000 0.44670  0.21730  0.74230  Biso   1.000  O  -0.475461
  O30      1.0000 0.45320  0.29280  0.66380  Biso   1.000  O  -0.441446
  O31      1.0000 0.05330  0.78270  0.24230  Biso   1.000  O  -0.475461
  O32      1.0000 0.04680  0.70720  0.16380  Biso   1.000  O  -0.441445
  O33      1.0000 0.75770  0.55330  0.71730  Biso   1.000  O  -0.475461
  O34      1.0000 0.83620  0.54680  0.79280  Biso   1.000  O  -0.441445
  O35      1.0000 0.25770  0.94670  0.28270  Biso   1.000  O  -0.475461
  O36      1.0000 0.33620  0.95320  0.20720  Biso   1.000  O  -0.441446
  O37      1.0000 0.74230  0.44670  0.21730  Biso   1.000  O  -0.475461
  O38      1.0000 0.66380  0.45320  0.29280  Biso   1.000  O  -0.441446
  O39      1.0000 0.24230  0.05330  0.78270  Biso   1.000  O  -0.475461
  O40      1.0000 0.16380  0.04680  0.70720  Biso   1.000  O  -0.441446
  O41      1.0000 0.71730  0.75770  0.55330  Biso   1.000  O  -0.475461
  O42      1.0000 0.79280  0.83620  0.54680  Biso   1.000  O  -0.441445
  O43      1.0000 0.28270  0.25770  0.94670  Biso   1.000  O  -0.475461
  O44      1.0000 0.20720  0.33620  0.95320  Biso   1.000  O  -0.441446
  O45      1.0000 0.21730  0.74230  0.44670  Biso   1.000  O  -0.475461
  O46      1.0000 0.29280  0.66380  0.45320  Biso   1.000  O  -0.441445
  O47      1.0000 0.78270  0.24230  0.05330  Biso   1.000  O  -0.475461
  O48      1.0000 0.70720  0.16380  0.04680  Biso   1.000  O  -0.441446
  O49      1.0000 0.30003  0.30003  0.30003  Biso   1.000  O  -0.521752
  O50      1.0000 0.19997  0.69997  0.80003  Biso   1.000  O  -0.521753
  O51      1.0000 0.69997  0.80003  0.19997  Biso   1.000  O  -0.521752
  O52      1.0000 0.80003  0.19997  0.69997  Biso   1.000  O  -0.521754
  O53      1.0000 0.69997  0.69997  0.69997  Biso   1.000  O  -0.521754
  O54      1.0000 0.80003  0.30003  0.19997  Biso   1.000  O  -0.521753
  O55      1.0000 0.30003  0.19997  0.80003  Biso   1.000  O  -0.521753
  O56      1.0000 0.19997  0.80003  0.30003  Biso   1.000  O  -0.521754
  Zn1      1.0000 0.35581  0.25061  0.23074  Biso   1.000  Zn  0.729739
  Zn2      1.0000 0.14419  0.74939  0.73074  Biso   1.000  Zn  0.729739
  Zn3      1.0000 0.64419  0.75061  0.26926  Biso   1.000  Zn  0.729738
  Zn4      1.0000 0.85581  0.24939  0.76926  Biso   1.000  Zn  0.729739
  Zn5      1.0000 0.23074  0.35581  0.25061  Biso   1.000  Zn  0.729736
  Zn6      1.0000 0.73074  0.14419  0.74939  Biso   1.000  Zn  0.729737
  Zn7      1.0000 0.26926  0.64419  0.75061  Biso   1.000  Zn  0.729736
  Zn8      1.0000 0.76926  0.85581  0.24939  Biso   1.000  Zn  0.729736
  Zn9      1.0000 0.25061  0.23074  0.35581  Biso   1.000  Zn  0.729734
  Zn10     1.0000 0.74939  0.73074  0.14419  Biso   1.000  Zn  0.729734
  Zn11     1.0000 0.75061  0.26926  0.64419  Biso   1.000  Zn  0.729734
  Zn12     1.0000 0.24939  0.76926  0.85581  Biso   1.000  Zn  0.729734
  Zn13     1.0000 0.64419  0.74939  0.76926  Biso   1.000  Zn  0.729739
  Zn14     1.0000 0.85581  0.25061  0.26926  Biso   1.000  Zn  0.729739
  Zn15     1.0000 0.35581  0.24939  0.73074  Biso   1.000  Zn  0.729739
  Zn16     1.0000 0.14419  0.75061  0.23074  Biso   1.000  Zn  0.729739
  Zn17     1.0000 0.76926  0.64419  0.74939  Biso   1.000  Zn  0.729737
  Zn18     1.0000 0.26926  0.85581  0.25061  Biso   1.000  Zn  0.729737
  Zn19     1.0000 0.73074  0.35581  0.24939  Biso   1.000  Zn  0.729737
  Zn20     1.0000 0.23074  0.14419  0.75061  Biso   1.000  Zn  0.729737
  Zn21     1.0000 0.74939  0.76926  0.64419  Biso   1.000  Zn  0.729735
  Zn22     1.0000 0.25061  0.26926  0.85581  Biso   1.000  Zn  0.729734
  Zn23     1.0000 0.24939  0.73074  0.35581  Biso   1.000  Zn  0.729735
  Zn24     1.0000 0.75061  0.23074  0.14419  Biso   1.000  Zn  0.729735
