data_image0
_cell_length_a       19.7213
_cell_length_b       19.7213
_cell_length_c       39.411
_cell_angle_alpha    90
_cell_angle_beta     90
_cell_angle_gamma    90

_symmetry_space_group_name_H-M    "P 1"
_symmetry_int_tables_number       1

loop_
  _symmetry_equiv_pos_as_xyz
  'x, y, z'

loop_
  _atom_site_label
  _atom_site_occupancy
  _atom_site_fract_x
  _atom_site_fract_y
  _atom_site_fract_z
  _atom_site_thermal_displace_type
  _atom_site_B_iso_or_equiv
  _atom_site_type_symbol
  _atom_site_charge
  C1       1.0000 0.43140  0.25050  0.29509  Biso   1.000  C  0.622010
  C2       1.0000 0.06860  0.24950  0.29509  Biso   1.000  C  0.622010
  C3       1.0000 0.24950  0.43140  0.79509  Biso   1.000  C  0.622010
  C4       1.0000 0.25050  0.06860  0.79509  Biso   1.000  C  0.622010
  C5       1.0000 0.56860  0.75050  0.20491  Biso   1.000  C  0.622010
  C6       1.0000 0.93140  0.74950  0.20491  Biso   1.000  C  0.622010
  C7       1.0000 0.75050  0.93140  0.70491  Biso   1.000  C  0.622010
  C8       1.0000 0.74950  0.56860  0.70491  Biso   1.000  C  0.622010
  C9       1.0000 0.56860  0.74950  0.70491  Biso   1.000  C  0.622009
  C10      1.0000 0.93140  0.75050  0.70491  Biso   1.000  C  0.622009
  C11      1.0000 0.75050  0.56860  0.20491  Biso   1.000  C  0.622009
  C12      1.0000 0.74950  0.93140  0.20491  Biso   1.000  C  0.622009
  C13      1.0000 0.43140  0.24950  0.79509  Biso   1.000  C  0.622009
  C14      1.0000 0.06860  0.25050  0.79509  Biso   1.000  C  0.622009
  C15      1.0000 0.24950  0.06860  0.29509  Biso   1.000  C  0.622009
  C16      1.0000 0.25050  0.43140  0.29509  Biso   1.000  C  0.622009
  C17      1.0000 0.50554  0.25080  0.29622  Biso   1.000  C  -0.035910
  C18      1.0000 0.99446  0.24920  0.29622  Biso   1.000  C  -0.035909
  C19      1.0000 0.24920  0.50554  0.79622  Biso   1.000  C  -0.035910
  C20      1.0000 0.25080  0.99446  0.79622  Biso   1.000  C  -0.035909
  C21      1.0000 0.49446  0.75080  0.20378  Biso   1.000  C  -0.035910
  C22      1.0000 0.00554  0.74920  0.20378  Biso   1.000  C  -0.035909
  C23      1.0000 0.75080  0.00554  0.70378  Biso   1.000  C  -0.035910
  C24      1.0000 0.74920  0.49446  0.70378  Biso   1.000  C  -0.035909
  C25      1.0000 0.49446  0.74920  0.70378  Biso   1.000  C  -0.035910
  C26      1.0000 0.00554  0.75080  0.70378  Biso   1.000  C  -0.035909
  C27      1.0000 0.75080  0.49446  0.20378  Biso   1.000  C  -0.035910
  C28      1.0000 0.74920  0.00554  0.20378  Biso   1.000  C  -0.035909
  C29      1.0000 0.50554  0.24920  0.79622  Biso   1.000  C  -0.035910
  C30      1.0000 0.99446  0.25080  0.79622  Biso   1.000  C  -0.035909
  C31      1.0000 0.24920  0.99446  0.29622  Biso   1.000  C  -0.035910
  C32      1.0000 0.25080  0.50554  0.29622  Biso   1.000  C  -0.035909
  C33      1.0000 0.54120  0.29290  0.27533  Biso   1.000  C  -0.093179
  C34      1.0000 0.95880  0.20710  0.27533  Biso   1.000  C  -0.093176
  C35      1.0000 0.20710  0.54120  0.77533  Biso   1.000  C  -0.093179
  C36      1.0000 0.29290  0.95880  0.77533  Biso   1.000  C  -0.093176
  C37      1.0000 0.45880  0.79290  0.22467  Biso   1.000  C  -0.093179
  C38      1.0000 0.04120  0.70710  0.22467  Biso   1.000  C  -0.093176
  C39      1.0000 0.79290  0.04120  0.72467  Biso   1.000  C  -0.093179
  C40      1.0000 0.70710  0.45880  0.72467  Biso   1.000  C  -0.093176
  C41      1.0000 0.45880  0.70710  0.72467  Biso   1.000  C  -0.093180
  C42      1.0000 0.04120  0.79290  0.72467  Biso   1.000  C  -0.093176
  C43      1.0000 0.79290  0.45880  0.22467  Biso   1.000  C  -0.093179
  C44      1.0000 0.70710  0.04120  0.22467  Biso   1.000  C  -0.093176
  C45      1.0000 0.54120  0.20710  0.77533  Biso   1.000  C  -0.093180
  C46      1.0000 0.95880  0.29290  0.77533  Biso   1.000  C  -0.093176
  C47      1.0000 0.20710  0.95880  0.27533  Biso   1.000  C  -0.093179
  C48      1.0000 0.29290  0.54120  0.27533  Biso   1.000  C  -0.093176
  C49      1.0000 0.61060  0.29330  0.27557  Biso   1.000  C  -0.140135
  C50      1.0000 0.88940  0.20670  0.27557  Biso   1.000  C  -0.140138
  C51      1.0000 0.20670  0.61060  0.77557  Biso   1.000  C  -0.140135
  C52      1.0000 0.29330  0.88940  0.77557  Biso   1.000  C  -0.140137
  C53      1.0000 0.38940  0.79330  0.22443  Biso   1.000  C  -0.140135
  C54      1.0000 0.11060  0.70670  0.22443  Biso   1.000  C  -0.140138
  C55      1.0000 0.79330  0.11060  0.72443  Biso   1.000  C  -0.140135
  C56      1.0000 0.70670  0.38940  0.72443  Biso   1.000  C  -0.140137
  C57      1.0000 0.38940  0.70670  0.72443  Biso   1.000  C  -0.140135
  C58      1.0000 0.11060  0.79330  0.72443  Biso   1.000  C  -0.140138
  C59      1.0000 0.79330  0.38940  0.22443  Biso   1.000  C  -0.140136
  C60      1.0000 0.70670  0.11060  0.22443  Biso   1.000  C  -0.140137
  C61      1.0000 0.61060  0.20670  0.77557  Biso   1.000  C  -0.140135
  C62      1.0000 0.88940  0.29330  0.77557  Biso   1.000  C  -0.140138
  C63      1.0000 0.20670  0.88940  0.27557  Biso   1.000  C  -0.140136
  C64      1.0000 0.29330  0.61060  0.27557  Biso   1.000  C  -0.140137
  C65      1.0000 0.64680  0.25140  0.29554  Biso   1.000  C  0.169727
  C66      1.0000 0.85320  0.24860  0.29554  Biso   1.000  C  0.169687
  C67      1.0000 0.24860  0.64680  0.79554  Biso   1.000  C  0.169727
  C68      1.0000 0.25140  0.85320  0.79554  Biso   1.000  C  0.169687
  C69      1.0000 0.35320  0.75140  0.20446  Biso   1.000  C  0.169727
  C70      1.0000 0.14680  0.74860  0.20446  Biso   1.000  C  0.169687
  C71      1.0000 0.75140  0.14680  0.70446  Biso   1.000  C  0.169727
  C72      1.0000 0.74860  0.35320  0.70446  Biso   1.000  C  0.169687
  C73      1.0000 0.35320  0.74860  0.70446  Biso   1.000  C  0.169727
  C74      1.0000 0.14680  0.75140  0.70446  Biso   1.000  C  0.169687
  C75      1.0000 0.75140  0.35320  0.20446  Biso   1.000  C  0.169727
  C76      1.0000 0.74860  0.14680  0.20446  Biso   1.000  C  0.169687
  C77      1.0000 0.64680  0.24860  0.79554  Biso   1.000  C  0.169727
  C78      1.0000 0.85320  0.25140  0.79554  Biso   1.000  C  0.169687
  C79      1.0000 0.24860  0.85320  0.29554  Biso   1.000  C  0.169727
  C80      1.0000 0.25140  0.64680  0.29554  Biso   1.000  C  0.169687
  C81      1.0000 0.61230  0.20780  0.31588  Biso   1.000  C  -0.151116
  C82      1.0000 0.88770  0.29220  0.31588  Biso   1.000  C  -0.151121
  C83      1.0000 0.29220  0.61230  0.81588  Biso   1.000  C  -0.151116
  C84      1.0000 0.20780  0.88770  0.81588  Biso   1.000  C  -0.151121
  C85      1.0000 0.38770  0.70780  0.18412  Biso   1.000  C  -0.151116
  C86      1.0000 0.11230  0.79220  0.18412  Biso   1.000  C  -0.151121
  C87      1.0000 0.70780  0.11230  0.68412  Biso   1.000  C  -0.151116
  C88      1.0000 0.79220  0.38770  0.68412  Biso   1.000  C  -0.151121
  C89      1.0000 0.38770  0.79220  0.68412  Biso   1.000  C  -0.151116
  C90      1.0000 0.11230  0.70780  0.68412  Biso   1.000  C  -0.151121
  C91      1.0000 0.70780  0.38770  0.18412  Biso   1.000  C  -0.151116
  C92      1.0000 0.79220  0.11230  0.18412  Biso   1.000  C  -0.151121
  C93      1.0000 0.61230  0.29220  0.81588  Biso   1.000  C  -0.151116
  C94      1.0000 0.88770  0.20780  0.81588  Biso   1.000  C  -0.151121
  C95      1.0000 0.29220  0.88770  0.31588  Biso   1.000  C  -0.151116
  C96      1.0000 0.20780  0.61230  0.31588  Biso   1.000  C  -0.151121
  C97      1.0000 0.54130  0.20790  0.31650  Biso   1.000  C  -0.090027
  C98      1.0000 0.95870  0.29210  0.31650  Biso   1.000  C  -0.090023
  C99      1.0000 0.29210  0.54130  0.81650  Biso   1.000  C  -0.090027
  C100     1.0000 0.20790  0.95870  0.81650  Biso   1.000  C  -0.090023
  C101     1.0000 0.45870  0.70790  0.18350  Biso   1.000  C  -0.090027
  C102     1.0000 0.04130  0.79210  0.18350  Biso   1.000  C  -0.090023
  C103     1.0000 0.70790  0.04130  0.68350  Biso   1.000  C  -0.090027
  C104     1.0000 0.79210  0.45870  0.68350  Biso   1.000  C  -0.090023
  C105     1.0000 0.45870  0.79210  0.68350  Biso   1.000  C  -0.090027
  C106     1.0000 0.04130  0.70790  0.68350  Biso   1.000  C  -0.090023
  C107     1.0000 0.70790  0.45870  0.18350  Biso   1.000  C  -0.090027
  C108     1.0000 0.79210  0.04130  0.18350  Biso   1.000  C  -0.090023
  C109     1.0000 0.54130  0.29210  0.81650  Biso   1.000  C  -0.090027
  C110     1.0000 0.95870  0.20790  0.81650  Biso   1.000  C  -0.090023
  C111     1.0000 0.29210  0.95870  0.31650  Biso   1.000  C  -0.090027
  C112     1.0000 0.20790  0.54130  0.31650  Biso   1.000  C  -0.090023
  C113     1.0000 0.72000  0.24930  0.29669  Biso   1.000  C  -0.108710
  C114     1.0000 0.78000  0.25070  0.29669  Biso   1.000  C  -0.108364
  C115     1.0000 0.25070  0.72000  0.79669  Biso   1.000  C  -0.108710
  C116     1.0000 0.24930  0.78000  0.79669  Biso   1.000  C  -0.108364
  C117     1.0000 0.28000  0.74930  0.20331  Biso   1.000  C  -0.108710
  C118     1.0000 0.22000  0.75070  0.20331  Biso   1.000  C  -0.108364
  C119     1.0000 0.74930  0.22000  0.70331  Biso   1.000  C  -0.108710
  C120     1.0000 0.75070  0.28000  0.70331  Biso   1.000  C  -0.108364
  C121     1.0000 0.28000  0.75070  0.70331  Biso   1.000  C  -0.108710
  C122     1.0000 0.22000  0.74930  0.70331  Biso   1.000  C  -0.108364
  C123     1.0000 0.74930  0.28000  0.20331  Biso   1.000  C  -0.108710
  C124     1.0000 0.75070  0.22000  0.20331  Biso   1.000  C  -0.108364
  C125     1.0000 0.72000  0.25070  0.79669  Biso   1.000  C  -0.108710
  C126     1.0000 0.78000  0.24930  0.79669  Biso   1.000  C  -0.108364
  C127     1.0000 0.25070  0.78000  0.29669  Biso   1.000  C  -0.108710
  C128     1.0000 0.24930  0.72000  0.29669  Biso   1.000  C  -0.108364
  C129     1.0000 0.25000  0.25000  0.38750  Biso   1.000  C  0.622502
  C130     1.0000 0.25000  0.25000  0.88750  Biso   1.000  C  0.622502
  C131     1.0000 0.75000  0.75000  0.11250  Biso   1.000  C  0.622502
  C132     1.0000 0.75000  0.75000  0.61250  Biso   1.000  C  0.622502
  C133     1.0000 0.25000  0.25000  0.42340  Biso   1.000  C  -0.029578
  C134     1.0000 0.25000  0.25000  0.92340  Biso   1.000  C  -0.029578
  C135     1.0000 0.75000  0.75000  0.07660  Biso   1.000  C  -0.029578
  C136     1.0000 0.75000  0.75000  0.57660  Biso   1.000  C  -0.029578
  C137     1.0000 0.29140  0.20860  0.44097  Biso   1.000  C  -0.092858
  C138     1.0000 0.20860  0.29140  0.44097  Biso   1.000  C  -0.092858
  C139     1.0000 0.29140  0.29140  0.94097  Biso   1.000  C  -0.092858
  C140     1.0000 0.20860  0.20860  0.94097  Biso   1.000  C  -0.092858
  C141     1.0000 0.70860  0.70860  0.05903  Biso   1.000  C  -0.092858
  C142     1.0000 0.79140  0.79140  0.05903  Biso   1.000  C  -0.092858
  C143     1.0000 0.70860  0.79140  0.55903  Biso   1.000  C  -0.092858
  C144     1.0000 0.79140  0.70860  0.55903  Biso   1.000  C  -0.092858
  C145     1.0000 0.29070  0.20930  0.47690  Biso   1.000  C  -0.150252
  C146     1.0000 0.20930  0.29070  0.47690  Biso   1.000  C  -0.150252
  C147     1.0000 0.29070  0.29070  0.97690  Biso   1.000  C  -0.150252
  C148     1.0000 0.20930  0.20930  0.97690  Biso   1.000  C  -0.150252
  C149     1.0000 0.70930  0.70930  0.02310  Biso   1.000  C  -0.150252
  C150     1.0000 0.79070  0.79070  0.02310  Biso   1.000  C  -0.150252
  C151     1.0000 0.70930  0.79070  0.52310  Biso   1.000  C  -0.150252
  C152     1.0000 0.79070  0.70930  0.52310  Biso   1.000  C  -0.150252
  C153     1.0000 0.25000  0.25000  0.49510  Biso   1.000  C  0.171806
  C154     1.0000 0.25000  0.25000  0.99510  Biso   1.000  C  0.171806
  C155     1.0000 0.75000  0.75000  0.00490  Biso   1.000  C  0.171806
  C156     1.0000 0.75000  0.75000  0.50490  Biso   1.000  C  0.171806
  C157     1.0000 0.25000  0.25000  0.53150  Biso   1.000  C  -0.096298
  C158     1.0000 0.25000  0.25000  0.03150  Biso   1.000  C  -0.096298
  C159     1.0000 0.75000  0.75000  0.96850  Biso   1.000  C  -0.096298
  C160     1.0000 0.75000  0.75000  0.46850  Biso   1.000  C  -0.096298
  C161     1.0000 0.25000  0.25000  0.56080  Biso   1.000  C  -0.123025
  C162     1.0000 0.25000  0.25000  0.06080  Biso   1.000  C  -0.123025
  C163     1.0000 0.75000  0.75000  0.93920  Biso   1.000  C  -0.123025
  C164     1.0000 0.75000  0.75000  0.43920  Biso   1.000  C  -0.123025
  C165     1.0000 0.25000  0.25000  0.59850  Biso   1.000  C  0.170240
  C166     1.0000 0.25000  0.25000  0.09850  Biso   1.000  C  0.170240
  C167     1.0000 0.75000  0.75000  0.90150  Biso   1.000  C  0.170240
  C168     1.0000 0.75000  0.75000  0.40150  Biso   1.000  C  0.170240
  C169     1.0000 0.29280  0.20720  0.61492  Biso   1.000  C  -0.149489
  C170     1.0000 0.20720  0.29280  0.61492  Biso   1.000  C  -0.149489
  C171     1.0000 0.29280  0.29280  0.11492  Biso   1.000  C  -0.149489
  C172     1.0000 0.20720  0.20720  0.11492  Biso   1.000  C  -0.149489
  C173     1.0000 0.70720  0.70720  0.88508  Biso   1.000  C  -0.149489
  C174     1.0000 0.79280  0.79280  0.88508  Biso   1.000  C  -0.149489
  C175     1.0000 0.70720  0.79280  0.38508  Biso   1.000  C  -0.149489
  C176     1.0000 0.79280  0.70720  0.38508  Biso   1.000  C  -0.149489
  C177     1.0000 0.29190  0.20810  0.64959  Biso   1.000  C  -0.090603
  C178     1.0000 0.20810  0.29190  0.64959  Biso   1.000  C  -0.090603
  C179     1.0000 0.29190  0.29190  0.14959  Biso   1.000  C  -0.090603
  C180     1.0000 0.20810  0.20810  0.14959  Biso   1.000  C  -0.090603
  C181     1.0000 0.70810  0.70810  0.85041  Biso   1.000  C  -0.090603
  C182     1.0000 0.79190  0.79190  0.85041  Biso   1.000  C  -0.090603
  C183     1.0000 0.70810  0.79190  0.35041  Biso   1.000  C  -0.090603
  C184     1.0000 0.79190  0.70810  0.35041  Biso   1.000  C  -0.090603
  C185     1.0000 0.25000  0.25000  0.66750  Biso   1.000  C  -0.044180
  C186     1.0000 0.25000  0.25000  0.16750  Biso   1.000  C  -0.044180
  C187     1.0000 0.75000  0.75000  0.83250  Biso   1.000  C  -0.044180
  C188     1.0000 0.75000  0.75000  0.33250  Biso   1.000  C  -0.044180
  C189     1.0000 0.25000  0.25000  0.70650  Biso   1.000  C  0.613962
  C190     1.0000 0.25000  0.25000  0.20650  Biso   1.000  C  0.613962
  C191     1.0000 0.75000  0.75000  0.79350  Biso   1.000  C  0.613962
  C192     1.0000 0.75000  0.75000  0.29350  Biso   1.000  C  0.613962
  H1       1.0000 0.51800  0.32180  0.26070  Biso   1.000  H  0.115839
  H2       1.0000 0.98200  0.17820  0.26070  Biso   1.000  H  0.115839
  H3       1.0000 0.17820  0.51800  0.76070  Biso   1.000  H  0.115839
  H4       1.0000 0.32180  0.98200  0.76070  Biso   1.000  H  0.115839
  H5       1.0000 0.48200  0.82180  0.23930  Biso   1.000  H  0.115839
  H6       1.0000 0.01800  0.67820  0.23930  Biso   1.000  H  0.115839
  H7       1.0000 0.82180  0.01800  0.73930  Biso   1.000  H  0.115839
  H8       1.0000 0.67820  0.48200  0.73930  Biso   1.000  H  0.115839
  H9       1.0000 0.48200  0.67820  0.73930  Biso   1.000  H  0.115837
  H10      1.0000 0.01800  0.82180  0.73930  Biso   1.000  H  0.115837
  H11      1.0000 0.82180  0.48200  0.23930  Biso   1.000  H  0.115837
  H12      1.0000 0.67820  0.01800  0.23930  Biso   1.000  H  0.115837
  H13      1.0000 0.51800  0.17820  0.76070  Biso   1.000  H  0.115837
  H14      1.0000 0.98200  0.32180  0.76070  Biso   1.000  H  0.115837
  H15      1.0000 0.17820  0.98200  0.26070  Biso   1.000  H  0.115837
  H16      1.0000 0.32180  0.51800  0.26070  Biso   1.000  H  0.115837
  H17      1.0000 0.63350  0.32340  0.26150  Biso   1.000  H  0.113519
  H18      1.0000 0.86650  0.17660  0.26150  Biso   1.000  H  0.113516
  H19      1.0000 0.17660  0.63350  0.76150  Biso   1.000  H  0.113518
  H20      1.0000 0.32340  0.86650  0.76150  Biso   1.000  H  0.113517
  H21      1.0000 0.36650  0.82340  0.23850  Biso   1.000  H  0.113519
  H22      1.0000 0.13350  0.67660  0.23850  Biso   1.000  H  0.113516
  H23      1.0000 0.82340  0.13350  0.73850  Biso   1.000  H  0.113518
  H24      1.0000 0.67660  0.36650  0.73850  Biso   1.000  H  0.113517
  H25      1.0000 0.36650  0.67660  0.73850  Biso   1.000  H  0.113519
  H26      1.0000 0.13350  0.82340  0.73850  Biso   1.000  H  0.113516
  H27      1.0000 0.82340  0.36650  0.23850  Biso   1.000  H  0.113518
  H28      1.0000 0.67660  0.13350  0.23850  Biso   1.000  H  0.113517
  H29      1.0000 0.63350  0.17660  0.76150  Biso   1.000  H  0.113519
  H30      1.0000 0.86650  0.32340  0.76150  Biso   1.000  H  0.113516
  H31      1.0000 0.17660  0.86650  0.26150  Biso   1.000  H  0.113518
  H32      1.0000 0.32340  0.63350  0.26150  Biso   1.000  H  0.113517
  H33      1.0000 0.63610  0.17760  0.32950  Biso   1.000  H  0.118665
  H34      1.0000 0.86390  0.32240  0.32950  Biso   1.000  H  0.118663
  H35      1.0000 0.32240  0.63610  0.82950  Biso   1.000  H  0.118665
  H36      1.0000 0.17760  0.86390  0.82950  Biso   1.000  H  0.118663
  H37      1.0000 0.36390  0.67760  0.17050  Biso   1.000  H  0.118665
  H38      1.0000 0.13610  0.82240  0.17050  Biso   1.000  H  0.118663
  H39      1.0000 0.67760  0.13610  0.67050  Biso   1.000  H  0.118665
  H40      1.0000 0.82240  0.36390  0.67050  Biso   1.000  H  0.118663
  H41      1.0000 0.36390  0.82240  0.67050  Biso   1.000  H  0.118665
  H42      1.0000 0.13610  0.67760  0.67050  Biso   1.000  H  0.118663
  H43      1.0000 0.67760  0.36390  0.17050  Biso   1.000  H  0.118665
  H44      1.0000 0.82240  0.13610  0.17050  Biso   1.000  H  0.118663
  H45      1.0000 0.63610  0.32240  0.82950  Biso   1.000  H  0.118665
  H46      1.0000 0.86390  0.17760  0.82950  Biso   1.000  H  0.118663
  H47      1.0000 0.32240  0.86390  0.32950  Biso   1.000  H  0.118665
  H48      1.0000 0.17760  0.63610  0.32950  Biso   1.000  H  0.118663
  H49      1.0000 0.51840  0.17850  0.33090  Biso   1.000  H  0.118339
  H50      1.0000 0.98160  0.32150  0.33090  Biso   1.000  H  0.118340
  H51      1.0000 0.32150  0.51840  0.83090  Biso   1.000  H  0.118339
  H52      1.0000 0.17850  0.98160  0.83090  Biso   1.000  H  0.118340
  H53      1.0000 0.48160  0.67850  0.16910  Biso   1.000  H  0.118339
  H54      1.0000 0.01840  0.82150  0.16910  Biso   1.000  H  0.118340
  H55      1.0000 0.67850  0.01840  0.66910  Biso   1.000  H  0.118339
  H56      1.0000 0.82150  0.48160  0.66910  Biso   1.000  H  0.118340
  H57      1.0000 0.48160  0.82150  0.66910  Biso   1.000  H  0.118339
  H58      1.0000 0.01840  0.67850  0.66910  Biso   1.000  H  0.118339
  H59      1.0000 0.67850  0.48160  0.16910  Biso   1.000  H  0.118339
  H60      1.0000 0.82150  0.01840  0.16910  Biso   1.000  H  0.118339
  H61      1.0000 0.51840  0.32150  0.83090  Biso   1.000  H  0.118339
  H62      1.0000 0.98160  0.17850  0.83090  Biso   1.000  H  0.118339
  H63      1.0000 0.32150  0.98160  0.33090  Biso   1.000  H  0.118339
  H64      1.0000 0.17850  0.51840  0.33090  Biso   1.000  H  0.118339
  H65      1.0000 0.32050  0.17950  0.42950  Biso   1.000  H  0.118629
  H66      1.0000 0.17950  0.32050  0.42950  Biso   1.000  H  0.118629
  H67      1.0000 0.32050  0.32050  0.92950  Biso   1.000  H  0.118629
  H68      1.0000 0.17950  0.17950  0.92950  Biso   1.000  H  0.118629
  H69      1.0000 0.67950  0.67950  0.07050  Biso   1.000  H  0.118629
  H70      1.0000 0.82050  0.82050  0.07050  Biso   1.000  H  0.118629
  H71      1.0000 0.67950  0.82050  0.57050  Biso   1.000  H  0.118629
  H72      1.0000 0.82050  0.67950  0.57050  Biso   1.000  H  0.118629
  H73      1.0000 0.31980  0.18020  0.48840  Biso   1.000  H  0.113961
  H74      1.0000 0.18020  0.31980  0.48840  Biso   1.000  H  0.113961
  H75      1.0000 0.31980  0.31980  0.98840  Biso   1.000  H  0.113961
  H76      1.0000 0.18020  0.18020  0.98840  Biso   1.000  H  0.113961
  H77      1.0000 0.68020  0.68020  0.01160  Biso   1.000  H  0.113961
  H78      1.0000 0.81980  0.81980  0.01160  Biso   1.000  H  0.113961
  H79      1.0000 0.68020  0.81980  0.51160  Biso   1.000  H  0.113961
  H80      1.0000 0.81980  0.68020  0.51160  Biso   1.000  H  0.113961
  H81      1.0000 0.32160  0.17840  0.60300  Biso   1.000  H  0.127767
  H82      1.0000 0.17840  0.32160  0.60300  Biso   1.000  H  0.127767
  H83      1.0000 0.32160  0.32160  0.10300  Biso   1.000  H  0.127767
  H84      1.0000 0.17840  0.17840  0.10300  Biso   1.000  H  0.127767
  H85      1.0000 0.67840  0.67840  0.89700  Biso   1.000  H  0.127767
  H86      1.0000 0.82160  0.82160  0.89700  Biso   1.000  H  0.127767
  H87      1.0000 0.67840  0.82160  0.39700  Biso   1.000  H  0.127767
  H88      1.0000 0.82160  0.67840  0.39700  Biso   1.000  H  0.127767
  H89      1.0000 0.32080  0.17920  0.66140  Biso   1.000  H  0.114193
  H90      1.0000 0.17920  0.32080  0.66140  Biso   1.000  H  0.114193
  H91      1.0000 0.32080  0.32080  0.16140  Biso   1.000  H  0.114193
  H92      1.0000 0.17920  0.17920  0.16140  Biso   1.000  H  0.114193
  H93      1.0000 0.67920  0.67920  0.83860  Biso   1.000  H  0.114193
  H94      1.0000 0.82080  0.82080  0.83860  Biso   1.000  H  0.114193
  H95      1.0000 0.67920  0.82080  0.33860  Biso   1.000  H  0.114193
  H96      1.0000 0.82080  0.67920  0.33860  Biso   1.000  H  0.114193
  O1       1.0000 0.25000  0.25000  0.29559  Biso   1.000  O  -1.039243
  O2       1.0000 0.25000  0.25000  0.79559  Biso   1.000  O  -1.039243
  O3       1.0000 0.75000  0.75000  0.20441  Biso   1.000  O  -1.039243
  O4       1.0000 0.75000  0.75000  0.70441  Biso   1.000  O  -1.039243
  O5       1.0000 0.40107  0.28923  0.27559  Biso   1.000  O  -0.546243
  O6       1.0000 0.09893  0.21077  0.27559  Biso   1.000  O  -0.546243
  O7       1.0000 0.21077  0.40107  0.77559  Biso   1.000  O  -0.546243
  O8       1.0000 0.28923  0.09893  0.77559  Biso   1.000  O  -0.546243
  O9       1.0000 0.59893  0.78923  0.22441  Biso   1.000  O  -0.546243
  O10      1.0000 0.90107  0.71077  0.22441  Biso   1.000  O  -0.546243
  O11      1.0000 0.78923  0.90107  0.72441  Biso   1.000  O  -0.546243
  O12      1.0000 0.71077  0.59893  0.72441  Biso   1.000  O  -0.546243
  O13      1.0000 0.59893  0.71077  0.72441  Biso   1.000  O  -0.546242
  O14      1.0000 0.90107  0.78923  0.72441  Biso   1.000  O  -0.546243
  O15      1.0000 0.78923  0.59893  0.22441  Biso   1.000  O  -0.546243
  O16      1.0000 0.71077  0.90107  0.22441  Biso   1.000  O  -0.546243
  O17      1.0000 0.40107  0.21077  0.77559  Biso   1.000  O  -0.546242
  O18      1.0000 0.09893  0.28923  0.77559  Biso   1.000  O  -0.546243
  O19      1.0000 0.21077  0.09893  0.27559  Biso   1.000  O  -0.546243
  O20      1.0000 0.28923  0.40107  0.27559  Biso   1.000  O  -0.546243
  O21      1.0000 0.40343  0.20962  0.31583  Biso   1.000  O  -0.562063
  O22      1.0000 0.09657  0.29038  0.31583  Biso   1.000  O  -0.562063
  O23      1.0000 0.29038  0.40343  0.81583  Biso   1.000  O  -0.562063
  O24      1.0000 0.20962  0.09657  0.81583  Biso   1.000  O  -0.562063
  O25      1.0000 0.59657  0.70962  0.18417  Biso   1.000  O  -0.562063
  O26      1.0000 0.90343  0.79038  0.18417  Biso   1.000  O  -0.562063
  O27      1.0000 0.70962  0.90343  0.68417  Biso   1.000  O  -0.562063
  O28      1.0000 0.79038  0.59657  0.68417  Biso   1.000  O  -0.562063
  O29      1.0000 0.59657  0.79038  0.68417  Biso   1.000  O  -0.562063
  O30      1.0000 0.90343  0.70962  0.68417  Biso   1.000  O  -0.562063
  O31      1.0000 0.70962  0.59657  0.18417  Biso   1.000  O  -0.562063
  O32      1.0000 0.79038  0.90343  0.18417  Biso   1.000  O  -0.562063
  O33      1.0000 0.40343  0.29038  0.81583  Biso   1.000  O  -0.562063
  O34      1.0000 0.09657  0.20962  0.81583  Biso   1.000  O  -0.562063
  O35      1.0000 0.29038  0.09657  0.31583  Biso   1.000  O  -0.562063
  O36      1.0000 0.20962  0.40343  0.31583  Biso   1.000  O  -0.562063
  O37      1.0000 0.29014  0.20986  0.37228  Biso   1.000  O  -0.558280
  O38      1.0000 0.20986  0.29014  0.37228  Biso   1.000  O  -0.558280
  O39      1.0000 0.29014  0.29014  0.87228  Biso   1.000  O  -0.558280
  O40      1.0000 0.20986  0.20986  0.87228  Biso   1.000  O  -0.558280
  O41      1.0000 0.70986  0.70986  0.12772  Biso   1.000  O  -0.558280
  O42      1.0000 0.79014  0.79014  0.12772  Biso   1.000  O  -0.558280
  O43      1.0000 0.70986  0.79014  0.62772  Biso   1.000  O  -0.558280
  O44      1.0000 0.79014  0.70986  0.62772  Biso   1.000  O  -0.558280
  O45      1.0000 0.28989  0.21011  0.72041  Biso   1.000  O  -0.542245
  O46      1.0000 0.21011  0.28989  0.72041  Biso   1.000  O  -0.542245
  O47      1.0000 0.28989  0.28989  0.22041  Biso   1.000  O  -0.542245
  O48      1.0000 0.21011  0.21011  0.22041  Biso   1.000  O  -0.542245
  O49      1.0000 0.71011  0.71011  0.77959  Biso   1.000  O  -0.542245
  O50      1.0000 0.78989  0.78989  0.77959  Biso   1.000  O  -0.542245
  O51      1.0000 0.71011  0.78989  0.27959  Biso   1.000  O  -0.542245
  O52      1.0000 0.78989  0.71011  0.27959  Biso   1.000  O  -0.542245
  Zn1      1.0000 0.30653  0.19347  0.32440  Biso   1.000  Zn  0.949438
  Zn2      1.0000 0.19347  0.30653  0.32440  Biso   1.000  Zn  0.949438
  Zn3      1.0000 0.30653  0.30653  0.82440  Biso   1.000  Zn  0.949438
  Zn4      1.0000 0.19347  0.19347  0.82440  Biso   1.000  Zn  0.949438
  Zn5      1.0000 0.69347  0.69347  0.17560  Biso   1.000  Zn  0.949438
  Zn6      1.0000 0.80653  0.80653  0.17560  Biso   1.000  Zn  0.949438
  Zn7      1.0000 0.69347  0.80653  0.67560  Biso   1.000  Zn  0.949438
  Zn8      1.0000 0.80653  0.69347  0.67560  Biso   1.000  Zn  0.949438
  Zn9      1.0000 0.30702  0.30702  0.26745  Biso   1.000  Zn  0.974913
  Zn10     1.0000 0.19298  0.19298  0.26745  Biso   1.000  Zn  0.974913
  Zn11     1.0000 0.19298  0.30702  0.76745  Biso   1.000  Zn  0.974913
  Zn12     1.0000 0.30702  0.19298  0.76745  Biso   1.000  Zn  0.974913
  Zn13     1.0000 0.69298  0.80702  0.23255  Biso   1.000  Zn  0.974913
  Zn14     1.0000 0.80702  0.69298  0.23255  Biso   1.000  Zn  0.974913
  Zn15     1.0000 0.80702  0.80702  0.73255  Biso   1.000  Zn  0.974913
  Zn16     1.0000 0.69298  0.69298  0.73255  Biso   1.000  Zn  0.974913
