data_image0
_cell_length_a       27.897
_cell_length_b       27.897
_cell_length_c       8.6691
_cell_angle_alpha    90
_cell_angle_beta     90
_cell_angle_gamma    120

_symmetry_space_group_name_H-M    "P 1"
_symmetry_int_tables_number       1

loop_
  _symmetry_equiv_pos_as_xyz
  'x, y, z'

loop_
  _atom_site_label
  _atom_site_occupancy
  _atom_site_fract_x
  _atom_site_fract_y
  _atom_site_fract_z
  _atom_site_thermal_displace_type
  _atom_site_B_iso_or_equiv
  _atom_site_type_symbol
  _atom_site_charge
  C1       1.0000 0.31642  0.91250  0.29600  Biso   1.000  C  0.087119
  C2       1.0000 0.08750  0.40392  0.29600  Biso   1.000  C  0.088429
  C3       1.0000 0.59608  0.68358  0.29600  Biso   1.000  C  0.086970
  C4       1.0000 0.98309  0.24583  0.62933  Biso   1.000  C  0.084721
  C5       1.0000 0.75417  0.73725  0.62933  Biso   1.000  C  0.089635
  C6       1.0000 0.26275  0.01691  0.62933  Biso   1.000  C  0.088729
  C7       1.0000 0.64975  0.57917  0.96267  Biso   1.000  C  0.086458
  C8       1.0000 0.42083  0.07059  0.96267  Biso   1.000  C  0.082870
  C9       1.0000 0.92941  0.35025  0.96267  Biso   1.000  C  0.080022
  C10      1.0000 0.68358  0.08750  0.70400  Biso   1.000  C  0.089293
  C11      1.0000 0.91250  0.59608  0.70400  Biso   1.000  C  0.087387
  C12      1.0000 0.40392  0.31642  0.70400  Biso   1.000  C  0.088089
  C13      1.0000 0.35025  0.42083  0.03733  Biso   1.000  C  0.080095
  C14      1.0000 0.57917  0.92941  0.03733  Biso   1.000  C  0.086080
  C15      1.0000 0.07059  0.64975  0.03733  Biso   1.000  C  0.085208
  C16      1.0000 0.01691  0.75417  0.37067  Biso   1.000  C  0.086997
  C17      1.0000 0.24583  0.26275  0.37067  Biso   1.000  C  0.087927
  C18      1.0000 0.73725  0.98309  0.37067  Biso   1.000  C  0.083575
  C19      1.0000 0.40329  0.91720  0.33310  Biso   1.000  C  0.079077
  C20      1.0000 0.08280  0.48609  0.33310  Biso   1.000  C  0.076502
  C21      1.0000 0.51391  0.59671  0.33310  Biso   1.000  C  0.078779
  C22      1.0000 0.06996  0.25053  0.66643  Biso   1.000  C  0.070776
  C23      1.0000 0.74947  0.81942  0.66643  Biso   1.000  C  0.078261
  C24      1.0000 0.18058  0.93004  0.66643  Biso   1.000  C  0.074015
  C25      1.0000 0.73662  0.58387  0.99977  Biso   1.000  C  0.078786
  C26      1.0000 0.41613  0.15276  0.99977  Biso   1.000  C  0.075146
  C27      1.0000 0.84724  0.26338  0.99977  Biso   1.000  C  0.072459
  C28      1.0000 0.59671  0.08280  0.66690  Biso   1.000  C  0.077019
  C29      1.0000 0.91720  0.51391  0.66690  Biso   1.000  C  0.078964
  C30      1.0000 0.48609  0.40329  0.66690  Biso   1.000  C  0.076777
  C31      1.0000 0.26338  0.41613  0.00023  Biso   1.000  C  0.072965
  C32      1.0000 0.58387  0.84724  0.00023  Biso   1.000  C  0.078129
  C33      1.0000 0.15276  0.73662  0.00023  Biso   1.000  C  0.076372
  C34      1.0000 0.93004  0.74947  0.33357  Biso   1.000  C  0.077554
  C35      1.0000 0.25053  0.18058  0.33357  Biso   1.000  C  0.072862
  C36      1.0000 0.81942  0.06996  0.33357  Biso   1.000  C  0.072539
  C37      1.0000 0.35205  0.89239  0.26640  Biso   1.000  C  -0.161506
  C38      1.0000 0.10761  0.45966  0.26640  Biso   1.000  C  -0.167324
  C39      1.0000 0.54034  0.64795  0.26640  Biso   1.000  C  -0.165554
  C40      1.0000 0.01872  0.22572  0.59973  Biso   1.000  C  -0.168850
  C41      1.0000 0.77428  0.79299  0.59973  Biso   1.000  C  -0.164379
  C42      1.0000 0.20701  0.98128  0.59973  Biso   1.000  C  -0.165925
  C43      1.0000 0.68538  0.55906  0.93307  Biso   1.000  C  -0.162433
  C44      1.0000 0.44094  0.12633  0.93307  Biso   1.000  C  -0.164324
  C45      1.0000 0.87367  0.31462  0.93307  Biso   1.000  C  -0.164792
  C46      1.0000 0.64795  0.10761  0.73360  Biso   1.000  C  -0.166951
  C47      1.0000 0.89239  0.54034  0.73360  Biso   1.000  C  -0.164874
  C48      1.0000 0.45966  0.35205  0.73360  Biso   1.000  C  -0.166984
  C49      1.0000 0.31462  0.44094  0.06693  Biso   1.000  C  -0.164965
  C50      1.0000 0.55906  0.87367  0.06693  Biso   1.000  C  -0.162805
  C51      1.0000 0.12633  0.68538  0.06693  Biso   1.000  C  -0.162363
  C52      1.0000 0.98128  0.77428  0.40027  Biso   1.000  C  -0.160724
  C53      1.0000 0.22572  0.20701  0.40027  Biso   1.000  C  -0.168640
  C54      1.0000 0.79299  0.01872  0.40027  Biso   1.000  C  -0.167110
  C55      1.0000 0.38620  0.97912  0.46060  Biso   1.000  C  0.069665
  C56      1.0000 0.02088  0.40708  0.46060  Biso   1.000  C  0.067439
  C57      1.0000 0.59292  0.61380  0.46060  Biso   1.000  C  0.067219
  C58      1.0000 0.05287  0.31245  0.79393  Biso   1.000  C  0.063404
  C59      1.0000 0.68755  0.74041  0.79393  Biso   1.000  C  0.071291
  C60      1.0000 0.25959  0.94713  0.79393  Biso   1.000  C  0.066888
  C61      1.0000 0.71953  0.64579  0.12727  Biso   1.000  C  0.073538
  C62      1.0000 0.35421  0.07375  0.12727  Biso   1.000  C  0.067384
  C63      1.0000 0.92625  0.28047  0.12727  Biso   1.000  C  0.067686
  C64      1.0000 0.61380  0.02088  0.53940  Biso   1.000  C  0.066460
  C65      1.0000 0.97912  0.59292  0.53940  Biso   1.000  C  0.067144
  C66      1.0000 0.40708  0.38620  0.53940  Biso   1.000  C  0.067590
  C67      1.0000 0.28047  0.35421  0.87273  Biso   1.000  C  0.067096
  C68      1.0000 0.64579  0.92625  0.87273  Biso   1.000  C  0.073563
  C69      1.0000 0.07375  0.71953  0.87273  Biso   1.000  C  0.070683
  C70      1.0000 0.94713  0.68755  0.20607  Biso   1.000  C  0.071511
  C71      1.0000 0.31245  0.25959  0.20607  Biso   1.000  C  0.065865
  C72      1.0000 0.74041  0.05287  0.20607  Biso   1.000  C  0.064349
  C73      1.0000 0.33391  0.95570  0.39960  Biso   1.000  C  -0.166961
  C74      1.0000 0.04430  0.37821  0.39960  Biso   1.000  C  -0.169873
  C75      1.0000 0.62179  0.66609  0.39960  Biso   1.000  C  -0.171617
  C76      1.0000 0.00058  0.28903  0.73293  Biso   1.000  C  -0.177595
  C77      1.0000 0.71097  0.71154  0.73293  Biso   1.000  C  -0.174792
  C78      1.0000 0.28846  0.99942  0.73293  Biso   1.000  C  -0.175570
  C79      1.0000 0.66724  0.62237  0.06627  Biso   1.000  C  -0.173227
  C80      1.0000 0.37763  0.04488  0.06627  Biso   1.000  C  -0.175374
  C81      1.0000 0.95512  0.33276  0.06627  Biso   1.000  C  -0.173286
  C82      1.0000 0.66609  0.04430  0.60040  Biso   1.000  C  -0.171350
  C83      1.0000 0.95570  0.62179  0.60040  Biso   1.000  C  -0.171826
  C84      1.0000 0.37821  0.33391  0.60040  Biso   1.000  C  -0.170253
  C85      1.0000 0.33276  0.37763  0.93373  Biso   1.000  C  -0.174103
  C86      1.0000 0.62237  0.95512  0.93373  Biso   1.000  C  -0.171611
  C87      1.0000 0.04488  0.66724  0.93373  Biso   1.000  C  -0.172988
  C88      1.0000 0.99942  0.71097  0.26707  Biso   1.000  C  -0.172143
  C89      1.0000 0.28903  0.28846  0.26707  Biso   1.000  C  -0.176932
  C90      1.0000 0.71154  0.00058  0.26707  Biso   1.000  C  -0.177436
  C91      1.0000 0.26470  0.89174  0.21100  Biso   1.000  C  0.243664
  C92      1.0000 0.10826  0.37296  0.21100  Biso   1.000  C  0.230658
  C93      1.0000 0.62704  0.73530  0.21100  Biso   1.000  C  0.233643
  C94      1.0000 0.93137  0.22507  0.54433  Biso   1.000  C  0.232090
  C95      1.0000 0.77493  0.70629  0.54433  Biso   1.000  C  0.233185
  C96      1.0000 0.29371  0.06863  0.54433  Biso   1.000  C  0.229484
  C97      1.0000 0.59803  0.55841  0.87767  Biso   1.000  C  0.245240
  C98      1.0000 0.44159  0.03963  0.87767  Biso   1.000  C  0.246006
  C99      1.0000 0.96037  0.40197  0.87767  Biso   1.000  C  0.249441
  C100     1.0000 0.73530  0.10826  0.78900  Biso   1.000  C  0.229349
  C101     1.0000 0.89174  0.62704  0.78900  Biso   1.000  C  0.234439
  C102     1.0000 0.37296  0.26470  0.78900  Biso   1.000  C  0.231419
  C103     1.0000 0.40197  0.44159  0.12233  Biso   1.000  C  0.249365
  C104     1.0000 0.55841  0.96037  0.12233  Biso   1.000  C  0.244483
  C105     1.0000 0.03963  0.59803  0.12233  Biso   1.000  C  0.245143
  C106     1.0000 0.06863  0.77493  0.45567  Biso   1.000  C  0.242609
  C107     1.0000 0.22507  0.29371  0.45567  Biso   1.000  C  0.230821
  C108     1.0000 0.70629  0.93137  0.45567  Biso   1.000  C  0.235445
  C109     1.0000 0.18904  0.87771  0.13060  Biso   1.000  C  0.228861
  C110     1.0000 0.12229  0.31133  0.13060  Biso   1.000  C  0.214583
  C111     1.0000 0.68867  0.81096  0.13060  Biso   1.000  C  0.217164
  C112     1.0000 0.85571  0.21104  0.46393  Biso   1.000  C  0.215452
  C113     1.0000 0.78896  0.64466  0.46393  Biso   1.000  C  0.221014
  C114     1.0000 0.35534  0.14429  0.46393  Biso   1.000  C  0.217939
  C115     1.0000 0.52237  0.54438  0.79727  Biso   1.000  C  0.230590
  C116     1.0000 0.45562  0.97800  0.79727  Biso   1.000  C  0.228754
  C117     1.0000 0.02200  0.47763  0.79727  Biso   1.000  C  0.229683
  C118     1.0000 0.81096  0.12229  0.86940  Biso   1.000  C  0.215160
  C119     1.0000 0.87771  0.68867  0.86940  Biso   1.000  C  0.217629
  C120     1.0000 0.31133  0.18904  0.86940  Biso   1.000  C  0.214470
  C121     1.0000 0.47763  0.45562  0.20273  Biso   1.000  C  0.229618
  C122     1.0000 0.54438  0.02200  0.20273  Biso   1.000  C  0.228910
  C123     1.0000 0.97800  0.52237  0.20273  Biso   1.000  C  0.230359
  C124     1.0000 0.14429  0.78896  0.53607  Biso   1.000  C  0.232027
  C125     1.0000 0.21104  0.35534  0.53607  Biso   1.000  C  0.216769
  C126     1.0000 0.64466  0.85571  0.53607  Biso   1.000  C  0.218419
  C127     1.0000 0.13586  0.87237  0.09710  Biso   1.000  C  0.098538
  C128     1.0000 0.12763  0.26349  0.09710  Biso   1.000  C  0.115314
  C129     1.0000 0.73651  0.86414  0.09710  Biso   1.000  C  0.109980
  C130     1.0000 0.80253  0.20570  0.43043  Biso   1.000  C  0.116431
  C131     1.0000 0.79430  0.59682  0.43043  Biso   1.000  C  0.105859
  C132     1.0000 0.40318  0.19747  0.43043  Biso   1.000  C  0.113777
  C133     1.0000 0.46919  0.53904  0.76377  Biso   1.000  C  0.098931
  C134     1.0000 0.46096  0.93016  0.76377  Biso   1.000  C  0.097342
  C135     1.0000 0.06984  0.53081  0.76377  Biso   1.000  C  0.099299
  C136     1.0000 0.86414  0.12763  0.90290  Biso   1.000  C  0.114918
  C137     1.0000 0.87237  0.73651  0.90290  Biso   1.000  C  0.106044
  C138     1.0000 0.26349  0.13586  0.90290  Biso   1.000  C  0.113913
  C139     1.0000 0.53081  0.46096  0.23623  Biso   1.000  C  0.099645
  C140     1.0000 0.53904  0.06984  0.23623  Biso   1.000  C  0.097572
  C141     1.0000 0.93016  0.46919  0.23623  Biso   1.000  C  0.098690
  C142     1.0000 0.19747  0.79430  0.56957  Biso   1.000  C  0.098229
  C143     1.0000 0.20570  0.40318  0.56957  Biso   1.000  C  0.115760
  C144     1.0000 0.59682  0.80253  0.56957  Biso   1.000  C  0.110925
  C145     1.0000 0.10633  0.88760  0.19300  Biso   1.000  C  -0.004471
  C146     1.0000 0.11240  0.21873  0.19300  Biso   1.000  C  -0.006228
  C147     1.0000 0.78127  0.89367  0.19300  Biso   1.000  C  -0.006079
  C148     1.0000 0.77300  0.22093  0.52633  Biso   1.000  C  -0.009320
  C149     1.0000 0.77907  0.55206  0.52633  Biso   1.000  C  -0.008223
  C150     1.0000 0.44794  0.22700  0.52633  Biso   1.000  C  -0.008625
  C151     1.0000 0.43966  0.55427  0.85967  Biso   1.000  C  -0.003627
  C152     1.0000 0.44573  0.88540  0.85967  Biso   1.000  C  -0.004528
  C153     1.0000 0.11460  0.56034  0.85967  Biso   1.000  C  -0.004167
  C154     1.0000 0.89367  0.11240  0.80700  Biso   1.000  C  -0.006175
  C155     1.0000 0.88760  0.78127  0.80700  Biso   1.000  C  -0.006326
  C156     1.0000 0.21873  0.10633  0.80700  Biso   1.000  C  -0.006892
  C157     1.0000 0.56034  0.44573  0.14033  Biso   1.000  C  -0.004500
  C158     1.0000 0.55427  0.11460  0.14033  Biso   1.000  C  -0.004090
  C159     1.0000 0.88540  0.43966  0.14033  Biso   1.000  C  -0.003417
  C160     1.0000 0.22700  0.77907  0.47367  Biso   1.000  C  -0.006600
  C161     1.0000 0.22093  0.44794  0.47367  Biso   1.000  C  -0.008776
  C162     1.0000 0.55206  0.77300  0.47367  Biso   1.000  C  -0.008766
  C163     1.0000 0.06631  0.84244  0.91820  Biso   1.000  C  0.017824
  C164     1.0000 0.15756  0.22387  0.91820  Biso   1.000  C  0.025002
  C165     1.0000 0.77613  0.93369  0.91820  Biso   1.000  C  0.025695
  C166     1.0000 0.73298  0.17577  0.25153  Biso   1.000  C  0.025392
  C167     1.0000 0.82423  0.55720  0.25153  Biso   1.000  C  0.022478
  C168     1.0000 0.44280  0.26702  0.25153  Biso   1.000  C  0.026095
  C169     1.0000 0.39964  0.50911  0.58487  Biso   1.000  C  0.021076
  C170     1.0000 0.49089  0.89054  0.58487  Biso   1.000  C  0.017484
  C171     1.0000 0.10946  0.60036  0.58487  Biso   1.000  C  0.018710
  C172     1.0000 0.93369  0.15756  0.08180  Biso   1.000  C  0.025410
  C173     1.0000 0.84244  0.77613  0.08180  Biso   1.000  C  0.021492
  C174     1.0000 0.22387  0.06631  0.08180  Biso   1.000  C  0.024159
  C175     1.0000 0.60036  0.49089  0.41513  Biso   1.000  C  0.019189
  C176     1.0000 0.50911  0.10946  0.41513  Biso   1.000  C  0.017821
  C177     1.0000 0.89054  0.39964  0.41513  Biso   1.000  C  0.020920
  C178     1.0000 0.26702  0.82423  0.74847  Biso   1.000  C  0.019021
  C179     1.0000 0.17577  0.44280  0.74847  Biso   1.000  C  0.025744
  C180     1.0000 0.55720  0.73298  0.74847  Biso   1.000  C  0.025757
  C181     1.0000 0.03810  0.85842  0.01700  Biso   1.000  C  0.008124
  C182     1.0000 0.14158  0.17968  0.01700  Biso   1.000  C  0.014682
  C183     1.0000 0.82032  0.96190  0.01700  Biso   1.000  C  0.012939
  C184     1.0000 0.70477  0.19175  0.35033  Biso   1.000  C  0.012606
  C185     1.0000 0.80825  0.51301  0.35033  Biso   1.000  C  0.009721
  C186     1.0000 0.48699  0.29523  0.35033  Biso   1.000  C  0.011892
  C187     1.0000 0.37143  0.52509  0.68367  Biso   1.000  C  0.009940
  C188     1.0000 0.47491  0.84635  0.68367  Biso   1.000  C  0.008845
  C189     1.0000 0.15365  0.62857  0.68367  Biso   1.000  C  0.008678
  C190     1.0000 0.96190  0.14158  0.98300  Biso   1.000  C  0.015487
  C191     1.0000 0.85842  0.82032  0.98300  Biso   1.000  C  0.010241
  C192     1.0000 0.17968  0.03810  0.98300  Biso   1.000  C  0.012301
  C193     1.0000 0.62857  0.47491  0.31633  Biso   1.000  C  0.008333
  C194     1.0000 0.52509  0.15365  0.31633  Biso   1.000  C  0.009284
  C195     1.0000 0.84635  0.37143  0.31633  Biso   1.000  C  0.010202
  C196     1.0000 0.29523  0.80825  0.64967  Biso   1.000  C  0.007249
  C197     1.0000 0.19175  0.48699  0.64967  Biso   1.000  C  0.013483
  C198     1.0000 0.51301  0.70477  0.64967  Biso   1.000  C  0.010693
  Fe1      1.0000 0.50000  0.00000  0.50000  Biso   1.000  Fe  0.387492
  Fe2      1.0000 0.00000  0.50000  0.50000  Biso   1.000  Fe  0.439420
  Fe3      1.0000 0.50000  0.50000  0.50000  Biso   1.000  Fe  0.442587
  Fe4      1.0000 0.16667  0.33333  0.83333  Biso   1.000  Fe  0.271964
  Fe5      1.0000 0.66667  0.83333  0.83333  Biso   1.000  Fe  0.495538
  Fe6      1.0000 0.16667  0.83333  0.83333  Biso   1.000  Fe  0.442398
  Fe7      1.0000 0.83333  0.66667  0.16667  Biso   1.000  Fe  0.480899
  Fe8      1.0000 0.33333  0.16667  0.16667  Biso   1.000  Fe  0.289646
  Fe9      1.0000 0.83333  0.16667  0.16667  Biso   1.000  Fe  0.268174
  H1       1.0000 0.42650  0.90300  0.31230  Biso   1.000  H  0.098696
  H2       1.0000 0.09700  0.52350  0.31230  Biso   1.000  H  0.096318
  H3       1.0000 0.47650  0.57350  0.31230  Biso   1.000  H  0.097041
  H4       1.0000 0.09317  0.23633  0.64563  Biso   1.000  H  0.097699
  H5       1.0000 0.76367  0.85683  0.64563  Biso   1.000  H  0.098528
  H6       1.0000 0.14317  0.90683  0.64563  Biso   1.000  H  0.097400
  H7       1.0000 0.75983  0.56967  0.97897  Biso   1.000  H  0.098090
  H8       1.0000 0.43033  0.19017  0.97897  Biso   1.000  H  0.098196
  H9       1.0000 0.80983  0.24017  0.97897  Biso   1.000  H  0.097649
  H10      1.0000 0.57350  0.09700  0.68770  Biso   1.000  H  0.097881
  H11      1.0000 0.90300  0.47650  0.68770  Biso   1.000  H  0.097235
  H12      1.0000 0.52350  0.42650  0.68770  Biso   1.000  H  0.096247
  H13      1.0000 0.24017  0.43033  0.02103  Biso   1.000  H  0.097466
  H14      1.0000 0.56967  0.80983  0.02103  Biso   1.000  H  0.097688
  H15      1.0000 0.19017  0.75983  0.02103  Biso   1.000  H  0.097547
  H16      1.0000 0.90683  0.76367  0.35437  Biso   1.000  H  0.099063
  H17      1.0000 0.23633  0.14317  0.35437  Biso   1.000  H  0.098021
  H18      1.0000 0.85683  0.09317  0.35437  Biso   1.000  H  0.098288
  H19      1.0000 0.34110  0.86210  0.20140  Biso   1.000  H  0.133842
  H20      1.0000 0.13790  0.47900  0.20140  Biso   1.000  H  0.132396
  H21      1.0000 0.52100  0.65890  0.20140  Biso   1.000  H  0.132746
  H22      1.0000 0.00777  0.19543  0.53473  Biso   1.000  H  0.131059
  H23      1.0000 0.80457  0.81233  0.53473  Biso   1.000  H  0.133157
  H24      1.0000 0.18767  0.99223  0.53473  Biso   1.000  H  0.132562
  H25      1.0000 0.67443  0.52877  0.86807  Biso   1.000  H  0.134355
  H26      1.0000 0.47123  0.14567  0.86807  Biso   1.000  H  0.133126
  H27      1.0000 0.85433  0.32557  0.86807  Biso   1.000  H  0.132238
  H28      1.0000 0.65890  0.13790  0.79860  Biso   1.000  H  0.133343
  H29      1.0000 0.86210  0.52100  0.79860  Biso   1.000  H  0.132905
  H30      1.0000 0.47900  0.34110  0.79860  Biso   1.000  H  0.132278
  H31      1.0000 0.32557  0.47123  0.13193  Biso   1.000  H  0.132298
  H32      1.0000 0.52877  0.85433  0.13193  Biso   1.000  H  0.133890
  H33      1.0000 0.14567  0.67443  0.13193  Biso   1.000  H  0.133987
  H34      1.0000 0.99223  0.80457  0.46527  Biso   1.000  H  0.133528
  H35      1.0000 0.19543  0.18767  0.46527  Biso   1.000  H  0.131764
  H36      1.0000 0.81233  0.00777  0.46527  Biso   1.000  H  0.131277
  H37      1.0000 0.39760  0.00870  0.52830  Biso   1.000  H  0.097252
  H38      1.0000 0.99130  0.38890  0.52830  Biso   1.000  H  0.095537
  H39      1.0000 0.61110  0.60240  0.52830  Biso   1.000  H  0.094905
  H40      1.0000 0.06427  0.34203  0.86163  Biso   1.000  H  0.094860
  H41      1.0000 0.65797  0.72223  0.86163  Biso   1.000  H  0.095327
  H42      1.0000 0.27777  0.93573  0.86163  Biso   1.000  H  0.094252
  H43      1.0000 0.73093  0.67537  0.19497  Biso   1.000  H  0.095111
  H44      1.0000 0.32463  0.05557  0.19497  Biso   1.000  H  0.094840
  H45      1.0000 0.94443  0.26907  0.19497  Biso   1.000  H  0.095082
  H46      1.0000 0.60240  0.99130  0.47170  Biso   1.000  H  0.096248
  H47      1.0000 0.00870  0.61110  0.47170  Biso   1.000  H  0.094869
  H48      1.0000 0.38890  0.39760  0.47170  Biso   1.000  H  0.095378
  H49      1.0000 0.26907  0.32463  0.80503  Biso   1.000  H  0.095076
  H50      1.0000 0.67537  0.94443  0.80503  Biso   1.000  H  0.095347
  H51      1.0000 0.05557  0.73093  0.80503  Biso   1.000  H  0.093820
  H52      1.0000 0.93573  0.65797  0.13837  Biso   1.000  H  0.095862
  H53      1.0000 0.34203  0.27777  0.13837  Biso   1.000  H  0.095437
  H54      1.0000 0.72223  0.06427  0.13837  Biso   1.000  H  0.095104
  H55      1.0000 0.31040  0.96880  0.42790  Biso   1.000  H  0.128259
  H56      1.0000 0.03120  0.34160  0.42790  Biso   1.000  H  0.128164
  H57      1.0000 0.65840  0.68960  0.42790  Biso   1.000  H  0.126558
  H58      1.0000 0.97707  0.30213  0.76123  Biso   1.000  H  0.126343
  H59      1.0000 0.69787  0.67493  0.76123  Biso   1.000  H  0.127379
  H60      1.0000 0.32507  0.02293  0.76123  Biso   1.000  H  0.127517
  H61      1.0000 0.64373  0.63547  0.09457  Biso   1.000  H  0.130114
  H62      1.0000 0.36453  0.00827  0.09457  Biso   1.000  H  0.127795
  H63      1.0000 0.99173  0.35627  0.09457  Biso   1.000  H  0.128855
  H64      1.0000 0.68960  0.03120  0.57210  Biso   1.000  H  0.128034
  H65      1.0000 0.96880  0.65840  0.57210  Biso   1.000  H  0.126156
  H66      1.0000 0.34160  0.31040  0.57210  Biso   1.000  H  0.127735
  H67      1.0000 0.35627  0.36453  0.90543  Biso   1.000  H  0.128899
  H68      1.0000 0.63547  0.99173  0.90543  Biso   1.000  H  0.130209
  H69      1.0000 0.00827  0.64373  0.90543  Biso   1.000  H  0.129528
  H70      1.0000 0.02293  0.69787  0.23877  Biso   1.000  H  0.127564
  H71      1.0000 0.30213  0.32507  0.23877  Biso   1.000  H  0.127061
  H72      1.0000 0.67493  0.97707  0.23877  Biso   1.000  H  0.125852
  H73      1.0000 0.12120  0.90270  0.28880  Biso   1.000  H  0.112762
  H74      1.0000 0.09730  0.21850  0.28880  Biso   1.000  H  0.114591
  H75      1.0000 0.78150  0.87880  0.28880  Biso   1.000  H  0.112618
  H76      1.0000 0.78787  0.23603  0.62213  Biso   1.000  H  0.114985
  H77      1.0000 0.76397  0.55183  0.62213  Biso   1.000  H  0.113224
  H78      1.0000 0.44817  0.21213  0.62213  Biso   1.000  H  0.114736
  H79      1.0000 0.45453  0.56937  0.95547  Biso   1.000  H  0.112509
  H80      1.0000 0.43063  0.88517  0.95547  Biso   1.000  H  0.112047
  H81      1.0000 0.11483  0.54547  0.95547  Biso   1.000  H  0.112778
  H82      1.0000 0.87880  0.09730  0.71120  Biso   1.000  H  0.114271
  H83      1.0000 0.90270  0.78150  0.71120  Biso   1.000  H  0.112398
  H84      1.0000 0.21850  0.12120  0.71120  Biso   1.000  H  0.114350
  H85      1.0000 0.54547  0.43063  0.04453  Biso   1.000  H  0.112765
  H86      1.0000 0.56937  0.11483  0.04453  Biso   1.000  H  0.112568
  H87      1.0000 0.88517  0.45453  0.04453  Biso   1.000  H  0.112449
  H88      1.0000 0.21213  0.76397  0.37787  Biso   1.000  H  0.113184
  H89      1.0000 0.23603  0.44817  0.37787  Biso   1.000  H  0.114980
  H90      1.0000 0.55183  0.78787  0.37787  Biso   1.000  H  0.113366
  H91      1.0000 0.05060  0.82660  0.82380  Biso   1.000  H  0.096173
  H92      1.0000 0.17340  0.22400  0.82380  Biso   1.000  H  0.098681
  H93      1.0000 0.77600  0.94940  0.82380  Biso   1.000  H  0.095825
  H94      1.0000 0.71727  0.15993  0.15713  Biso   1.000  H  0.097556
  H95      1.0000 0.84007  0.55733  0.15713  Biso   1.000  H  0.094806
  H96      1.0000 0.44267  0.28273  0.15713  Biso   1.000  H  0.097513
  H97      1.0000 0.38393  0.49327  0.49047  Biso   1.000  H  0.098304
  H98      1.0000 0.50673  0.89067  0.49047  Biso   1.000  H  0.097809
  H99      1.0000 0.10933  0.61607  0.49047  Biso   1.000  H  0.097545
  H100     1.0000 0.94940  0.17340  0.17620  Biso   1.000  H  0.098851
  H101     1.0000 0.82660  0.77600  0.17620  Biso   1.000  H  0.095475
  H102     1.0000 0.22400  0.05060  0.17620  Biso   1.000  H  0.098022
  H103     1.0000 0.61607  0.50673  0.50953  Biso   1.000  H  0.097615
  H104     1.0000 0.49327  0.10933  0.50953  Biso   1.000  H  0.097993
  H105     1.0000 0.89067  0.38393  0.50953  Biso   1.000  H  0.098345
  H106     1.0000 0.28273  0.84007  0.84287  Biso   1.000  H  0.095399
  H107     1.0000 0.15993  0.44267  0.84287  Biso   1.000  H  0.097803
  H108     1.0000 0.55733  0.71727  0.84287  Biso   1.000  H  0.094572
  H109     1.0000 0.00370  0.85270  0.98610  Biso   1.000  H  0.098148
  H110     1.0000 0.14730  0.15100  0.98610  Biso   1.000  H  0.098826
  H111     1.0000 0.84900  0.99630  0.98610  Biso   1.000  H  0.097678
  H112     1.0000 0.67037  0.18603  0.31943  Biso   1.000  H  0.099647
  H113     1.0000 0.81397  0.48433  0.31943  Biso   1.000  H  0.098501
  H114     1.0000 0.51567  0.32963  0.31943  Biso   1.000  H  0.099656
  H115     1.0000 0.33703  0.51937  0.65277  Biso   1.000  H  0.098415
  H116     1.0000 0.48063  0.81767  0.65277  Biso   1.000  H  0.098082
  H117     1.0000 0.18233  0.66297  0.65277  Biso   1.000  H  0.098508
  H118     1.0000 0.99630  0.14730  0.01390  Biso   1.000  H  0.098849
  H119     1.0000 0.85270  0.84900  0.01390  Biso   1.000  H  0.097674
  H120     1.0000 0.15100  0.00370  0.01390  Biso   1.000  H  0.099047
  H121     1.0000 0.66297  0.48063  0.34723  Biso   1.000  H  0.098468
  H122     1.0000 0.51937  0.18233  0.34723  Biso   1.000  H  0.098050
  H123     1.0000 0.81767  0.33703  0.34723  Biso   1.000  H  0.098303
  H124     1.0000 0.32963  0.81397  0.68057  Biso   1.000  H  0.098911
  H125     1.0000 0.18603  0.51567  0.68057  Biso   1.000  H  0.099665
  H126     1.0000 0.48433  0.67037  0.68057  Biso   1.000  H  0.098473
  N1       1.0000 0.42180  0.96128  0.42730  Biso   1.000  N  -0.144760
  N2       1.0000 0.03872  0.46052  0.42730  Biso   1.000  N  -0.164030
  N3       1.0000 0.53948  0.57820  0.42730  Biso   1.000  N  -0.164025
  N4       1.0000 0.08847  0.29461  0.76063  Biso   1.000  N  -0.142175
  N5       1.0000 0.70539  0.79385  0.76063  Biso   1.000  N  -0.168877
  N6       1.0000 0.20615  0.91153  0.76063  Biso   1.000  N  -0.166252
  N7       1.0000 0.75513  0.62795  0.09397  Biso   1.000  N  -0.162836
  N8       1.0000 0.37205  0.12719  0.09397  Biso   1.000  N  -0.138767
  N9       1.0000 0.87281  0.24487  0.09397  Biso   1.000  N  -0.137193
  N10      1.0000 0.57820  0.03872  0.57270  Biso   1.000  N  -0.148956
  N11      1.0000 0.96128  0.53948  0.57270  Biso   1.000  N  -0.162322
  N12      1.0000 0.46052  0.42180  0.57270  Biso   1.000  N  -0.165095
  N13      1.0000 0.24487  0.37205  0.90603  Biso   1.000  N  -0.138030
  N14      1.0000 0.62795  0.87281  0.90603  Biso   1.000  N  -0.166678
  N15      1.0000 0.12719  0.75513  0.90603  Biso   1.000  N  -0.162104
  N16      1.0000 0.91153  0.70539  0.23937  Biso   1.000  N  -0.163039
  N17      1.0000 0.29461  0.20615  0.23937  Biso   1.000  N  -0.142946
  N18      1.0000 0.79385  0.08847  0.23937  Biso   1.000  N  -0.139925
  N19      1.0000 0.25755  0.86545  0.07620  Biso   1.000  N  -0.277088
  N20      1.0000 0.13455  0.39210  0.07620  Biso   1.000  N  -0.279855
  N21      1.0000 0.60790  0.74245  0.07620  Biso   1.000  N  -0.275966
  N22      1.0000 0.92422  0.19878  0.40953  Biso   1.000  N  -0.280642
  N23      1.0000 0.80122  0.72543  0.40953  Biso   1.000  N  -0.277002
  N24      1.0000 0.27457  0.07578  0.40953  Biso   1.000  N  -0.280102
  N25      1.0000 0.59088  0.53212  0.74287  Biso   1.000  N  -0.279010
  N26      1.0000 0.46788  0.05877  0.74287  Biso   1.000  N  -0.280810
  N27      1.0000 0.94123  0.40912  0.74287  Biso   1.000  N  -0.280232
  N28      1.0000 0.74245  0.13455  0.92380  Biso   1.000  N  -0.279896
  N29      1.0000 0.86545  0.60790  0.92380  Biso   1.000  N  -0.276823
  N30      1.0000 0.39210  0.25755  0.92380  Biso   1.000  N  -0.279459
  N31      1.0000 0.40912  0.46788  0.25713  Biso   1.000  N  -0.280483
  N32      1.0000 0.53212  0.94123  0.25713  Biso   1.000  N  -0.280503
  N33      1.0000 0.05877  0.59088  0.25713  Biso   1.000  N  -0.279294
  N34      1.0000 0.07578  0.80122  0.59047  Biso   1.000  N  -0.277622
  N35      1.0000 0.19878  0.27457  0.59047  Biso   1.000  N  -0.279863
  N36      1.0000 0.72543  0.92422  0.59047  Biso   1.000  N  -0.276788
  N37      1.0000 0.22297  0.90069  0.25140  Biso   1.000  N  -0.418330
  N38      1.0000 0.09931  0.32228  0.25140  Biso   1.000  N  -0.420766
  N39      1.0000 0.67772  0.77703  0.25140  Biso   1.000  N  -0.418680
  N40      1.0000 0.88964  0.23402  0.58473  Biso   1.000  N  -0.425211
  N41      1.0000 0.76598  0.65561  0.58473  Biso   1.000  N  -0.420544
  N42      1.0000 0.34439  0.11036  0.58473  Biso   1.000  N  -0.423847
  N43      1.0000 0.55630  0.56736  0.91807  Biso   1.000  N  -0.419727
  N44      1.0000 0.43264  0.98895  0.91807  Biso   1.000  N  -0.420386
  N45      1.0000 0.01105  0.44370  0.91807  Biso   1.000  N  -0.418362
  N46      1.0000 0.77703  0.09931  0.74860  Biso   1.000  N  -0.421810
  N47      1.0000 0.90069  0.67772  0.74860  Biso   1.000  N  -0.419900
  N48      1.0000 0.32228  0.22297  0.74860  Biso   1.000  N  -0.420994
  N49      1.0000 0.44370  0.43264  0.08193  Biso   1.000  N  -0.419028
  N50      1.0000 0.56736  0.01105  0.08193  Biso   1.000  N  -0.417905
  N51      1.0000 0.98895  0.55630  0.08193  Biso   1.000  N  -0.419910
  N52      1.0000 0.11036  0.76598  0.41527  Biso   1.000  N  -0.420998
  N53      1.0000 0.23402  0.34439  0.41527  Biso   1.000  N  -0.424455
  N54      1.0000 0.65561  0.88964  0.41527  Biso   1.000  N  -0.420916
  N55      1.0000 0.20828  0.85710  0.02470  Biso   1.000  N  -0.173512
  N56      1.0000 0.14290  0.35118  0.02470  Biso   1.000  N  -0.154338
  N57      1.0000 0.64882  0.79172  0.02470  Biso   1.000  N  -0.186084
  N58      1.0000 0.87495  0.19043  0.35803  Biso   1.000  N  -0.156951
  N59      1.0000 0.80957  0.68451  0.35803  Biso   1.000  N  -0.184824
  N60      1.0000 0.31549  0.12505  0.35803  Biso   1.000  N  -0.158767
  N61      1.0000 0.54161  0.52377  0.69137  Biso   1.000  N  -0.171767
  N62      1.0000 0.47623  0.01785  0.69137  Biso   1.000  N  -0.162399
  N63      1.0000 0.98215  0.45839  0.69137  Biso   1.000  N  -0.171831
  N64      1.0000 0.79172  0.14290  0.97530  Biso   1.000  N  -0.154071
  N65      1.0000 0.85710  0.64882  0.97530  Biso   1.000  N  -0.183924
  N66      1.0000 0.35118  0.20828  0.97530  Biso   1.000  N  -0.158194
  N67      1.0000 0.45839  0.47623  0.30863  Biso   1.000  N  -0.173030
  N68      1.0000 0.52377  0.98215  0.30863  Biso   1.000  N  -0.162485
  N69      1.0000 0.01785  0.54161  0.30863  Biso   1.000  N  -0.170753
  N70      1.0000 0.12505  0.80957  0.64197  Biso   1.000  N  -0.174387
  N71      1.0000 0.19043  0.31549  0.64197  Biso   1.000  N  -0.155781
  N72      1.0000 0.68451  0.87495  0.64197  Biso   1.000  N  -0.188540
  N73      1.0000 0.11606  0.84947  0.95640  Biso   1.000  N  -0.187322
  N74      1.0000 0.15053  0.26659  0.95640  Biso   1.000  N  -0.150455
  N75      1.0000 0.73341  0.88394  0.95640  Biso   1.000  N  -0.203667
  N76      1.0000 0.78273  0.18280  0.28973  Biso   1.000  N  -0.152560
  N77      1.0000 0.81720  0.59992  0.28973  Biso   1.000  N  -0.201649
  N78      1.0000 0.40008  0.21727  0.28973  Biso   1.000  N  -0.157287
  N79      1.0000 0.44939  0.51614  0.62307  Biso   1.000  N  -0.187098
  N80      1.0000 0.48386  0.93326  0.62307  Biso   1.000  N  -0.181277
  N81      1.0000 0.06674  0.55061  0.62307  Biso   1.000  N  -0.187251
  N82      1.0000 0.88394  0.15053  0.04360  Biso   1.000  N  -0.150410
  N83      1.0000 0.84947  0.73341  0.04360  Biso   1.000  N  -0.200072
  N84      1.0000 0.26659  0.11606  0.04360  Biso   1.000  N  -0.155532
  N85      1.0000 0.55061  0.48386  0.37693  Biso   1.000  N  -0.187816
  N86      1.0000 0.51614  0.06674  0.37693  Biso   1.000  N  -0.181265
  N87      1.0000 0.93326  0.44939  0.37693  Biso   1.000  N  -0.186436
  N88      1.0000 0.21727  0.81720  0.71027  Biso   1.000  N  -0.188333
  N89      1.0000 0.18280  0.40008  0.71027  Biso   1.000  N  -0.152341
  N90      1.0000 0.59992  0.78273  0.71027  Biso   1.000  N  -0.205637
  N91      1.0000 0.05731  0.88160  0.15420  Biso   1.000  N  -0.249176
  N92      1.0000 0.11840  0.17571  0.15420  Biso   1.000  N  -0.235434
  N93      1.0000 0.82429  0.94269  0.15420  Biso   1.000  N  -0.238398
  N94      1.0000 0.72398  0.21493  0.48753  Biso   1.000  N  -0.236418
  N95      1.0000 0.78507  0.50904  0.48753  Biso   1.000  N  -0.243279
  N96      1.0000 0.49096  0.27602  0.48753  Biso   1.000  N  -0.237262
  N97      1.0000 0.39064  0.54827  0.82087  Biso   1.000  N  -0.245955
  N98      1.0000 0.45173  0.84238  0.82087  Biso   1.000  N  -0.248797
  N99      1.0000 0.15762  0.60936  0.82087  Biso   1.000  N  -0.247803
  N100     1.0000 0.94269  0.11840  0.84580  Biso   1.000  N  -0.234902
  N101     1.0000 0.88160  0.82429  0.84580  Biso   1.000  N  -0.243010
  N102     1.0000 0.17571  0.05731  0.84580  Biso   1.000  N  -0.236926
  N103     1.0000 0.60936  0.45173  0.17913  Biso   1.000  N  -0.247721
  N104     1.0000 0.54827  0.15762  0.17913  Biso   1.000  N  -0.247952
  N105     1.0000 0.84238  0.39064  0.17913  Biso   1.000  N  -0.246145
  N106     1.0000 0.27602  0.78507  0.51247  Biso   1.000  N  -0.249681
  N107     1.0000 0.21493  0.49096  0.51247  Biso   1.000  N  -0.236312
  N108     1.0000 0.50904  0.72398  0.51247  Biso   1.000  N  -0.239729
