data_image0
_cell_length_a       18.8028
_cell_length_b       18.8028
_cell_length_c       51.883
_cell_angle_alpha    90
_cell_angle_beta     90
_cell_angle_gamma    120

_symmetry_space_group_name_H-M    "P 1"
_symmetry_int_tables_number       1

loop_
  _symmetry_equiv_pos_as_xyz
  'x, y, z'

loop_
  _atom_site_label
  _atom_site_occupancy
  _atom_site_fract_x
  _atom_site_fract_y
  _atom_site_fract_z
  _atom_site_thermal_displace_type
  _atom_site_B_iso_or_equiv
  _atom_site_type_symbol
  _atom_site_charge
  C1       1.0000 0.04550  0.83060  0.82446  Biso   1.000  C  -0.091948
  C2       1.0000 0.17005  0.34010  0.59390  Biso   1.000  C  -0.104299
  C3       1.0000 0.84800  0.56820  0.46832  Biso   1.000  C  -0.003535
  C4       1.0000 0.73880  0.13530  0.05595  Biso   1.000  C  -0.145330
  C5       1.0000 0.17005  0.34010  0.90610  Biso   1.000  C  -0.104294
  C6       1.0000 0.27980  0.43180  0.53168  Biso   1.000  C  -0.003526
  C7       1.0000 0.86470  0.60350  0.05595  Biso   1.000  C  -0.145310
  C8       1.0000 0.36130  0.90690  0.98136  Biso   1.000  C  0.595185
  C9       1.0000 0.15455  0.30910  0.61390  Biso   1.000  C  -0.101711
  C10      1.0000 0.07815  0.92185  0.71379  Biso   1.000  C  0.641627
  C11      1.0000 0.84800  0.27980  0.46832  Biso   1.000  C  -0.003544
  C12      1.0000 0.80400  0.90200  0.81160  Biso   1.000  C  -0.026021
  C13      1.0000 0.93840  0.74820  0.15099  Biso   1.000  C  -0.155360
  C14      1.0000 0.69090  0.84545  0.88610  Biso   1.000  C  -0.101834
  C15      1.0000 0.90200  0.80400  0.31160  Biso   1.000  C  -0.028077
  C16      1.0000 0.80980  0.74820  0.34901  Biso   1.000  C  -0.155366
  C17      1.0000 0.06160  0.80980  0.65099  Biso   1.000  C  -0.155561
  C18      1.0000 0.15200  0.43180  0.53168  Biso   1.000  C  -0.003514
  C19      1.0000 0.13530  0.39650  0.55595  Biso   1.000  C  -0.145270
  C20      1.0000 0.78510  0.83060  0.82446  Biso   1.000  C  -0.091770
  C21      1.0000 0.09310  0.63870  0.98136  Biso   1.000  C  0.595191
  C22      1.0000 0.74820  0.93840  0.84901  Biso   1.000  C  -0.155152
  C23      1.0000 0.63870  0.54560  0.48136  Biso   1.000  C  0.595196
  C24      1.0000 0.74820  0.80980  0.65099  Biso   1.000  C  -0.155106
  C25      1.0000 0.13530  0.39650  0.94405  Biso   1.000  C  -0.145276
  C26      1.0000 0.73880  0.60350  0.44405  Biso   1.000  C  -0.145325
  C27      1.0000 0.86470  0.26120  0.05595  Biso   1.000  C  -0.145338
  C28      1.0000 0.77595  0.55190  0.01956  Biso   1.000  C  -0.124611
  C29      1.0000 0.36130  0.45440  0.98136  Biso   1.000  C  0.595189
  C30      1.0000 0.84545  0.15455  0.11390  Biso   1.000  C  -0.101672
  C31      1.0000 0.09310  0.45440  0.51864  Biso   1.000  C  0.595193
  C32      1.0000 0.17005  0.82995  0.59390  Biso   1.000  C  -0.105156
  C33      1.0000 0.22405  0.77595  0.51956  Biso   1.000  C  -0.124753
  C34      1.0000 0.82995  0.17005  0.40610  Biso   1.000  C  -0.104635
  C35      1.0000 0.77595  0.22405  0.48044  Biso   1.000  C  -0.124630
  C36      1.0000 0.43180  0.27980  0.46832  Biso   1.000  C  -0.003548
  C37      1.0000 0.39650  0.13530  0.05595  Biso   1.000  C  -0.145307
  C38      1.0000 0.16940  0.21490  0.67554  Biso   1.000  C  -0.091773
  C39      1.0000 0.84370  0.92185  0.71379  Biso   1.000  C  0.641384
  C40      1.0000 0.84545  0.69090  0.38610  Biso   1.000  C  -0.101684
  C41      1.0000 0.27330  0.13665  0.13940  Biso   1.000  C  0.160345
  C42      1.0000 0.74820  0.93840  0.65099  Biso   1.000  C  -0.155153
  C43      1.0000 0.19600  0.09800  0.18840  Biso   1.000  C  -0.028076
  C44      1.0000 0.19600  0.09800  0.31160  Biso   1.000  C  -0.028076
  C45      1.0000 0.86470  0.60350  0.44405  Biso   1.000  C  -0.145303
  C46      1.0000 0.13665  0.86335  0.63940  Biso   1.000  C  0.160030
  C47      1.0000 0.27330  0.13665  0.36060  Biso   1.000  C  0.160332
  C48      1.0000 0.84545  0.69090  0.11390  Biso   1.000  C  -0.101693
  C49      1.0000 0.07815  0.92185  0.78621  Biso   1.000  C  0.641627
  C50      1.0000 0.09310  0.63870  0.51864  Biso   1.000  C  0.595199
  C51      1.0000 0.39650  0.13530  0.44405  Biso   1.000  C  -0.145307
  C52      1.0000 0.60350  0.73880  0.55595  Biso   1.000  C  -0.145288
  C53      1.0000 0.18885  0.81115  0.93169  Biso   1.000  C  0.160286
  C54      1.0000 0.13530  0.73880  0.55595  Biso   1.000  C  -0.145378
  C55      1.0000 0.22405  0.44810  0.51956  Biso   1.000  C  -0.124535
  C56      1.0000 0.43180  0.27980  0.03168  Biso   1.000  C  -0.003552
  C57      1.0000 0.77595  0.22405  0.01956  Biso   1.000  C  -0.124597
  C58      1.0000 0.22405  0.44810  0.98044  Biso   1.000  C  -0.124532
  C59      1.0000 0.22405  0.77595  0.98044  Biso   1.000  C  -0.124722
  C60      1.0000 0.54560  0.63870  0.98136  Biso   1.000  C  0.595182
  C61      1.0000 0.54560  0.90690  0.51864  Biso   1.000  C  0.595193
  C62      1.0000 0.15200  0.72020  0.96832  Biso   1.000  C  -0.003588
  C63      1.0000 0.09800  0.90200  0.81160  Biso   1.000  C  -0.027550
  C64      1.0000 0.77595  0.55190  0.48044  Biso   1.000  C  -0.124613
  C65      1.0000 0.55190  0.77595  0.98044  Biso   1.000  C  -0.124503
  C66      1.0000 0.86470  0.26120  0.44405  Biso   1.000  C  -0.145327
  C67      1.0000 0.73880  0.60350  0.05595  Biso   1.000  C  -0.145328
  C68      1.0000 0.04550  0.21490  0.82446  Biso   1.000  C  -0.092063
  C69      1.0000 0.63870  0.54560  0.01864  Biso   1.000  C  0.595194
  C70      1.0000 0.36130  0.45440  0.51864  Biso   1.000  C  0.595191
  C71      1.0000 0.06160  0.25180  0.84901  Biso   1.000  C  -0.155159
  C72      1.0000 0.18885  0.81115  0.56831  Biso   1.000  C  0.160296
  C73      1.0000 0.78510  0.95450  0.82446  Biso   1.000  C  -0.092073
  C74      1.0000 0.80980  0.74820  0.15099  Biso   1.000  C  -0.155367
  C75      1.0000 0.90200  0.80400  0.18840  Biso   1.000  C  -0.028080
  C76      1.0000 0.93840  0.74820  0.34901  Biso   1.000  C  -0.155360
  C77      1.0000 0.16940  0.95450  0.82446  Biso   1.000  C  -0.091958
  C78      1.0000 0.84800  0.27980  0.03168  Biso   1.000  C  -0.003547
  C79      1.0000 0.19020  0.25180  0.65099  Biso   1.000  C  -0.155107
  C80      1.0000 0.21490  0.04550  0.17554  Biso   1.000  C  -0.091715
  C81      1.0000 0.73880  0.13530  0.44405  Biso   1.000  C  -0.145331
  C82      1.0000 0.60350  0.86470  0.94405  Biso   1.000  C  -0.145273
  C83      1.0000 0.65990  0.82995  0.59390  Biso   1.000  C  -0.104299
  C84      1.0000 0.84800  0.56820  0.03168  Biso   1.000  C  -0.003544
  C85      1.0000 0.90690  0.36130  0.48136  Biso   1.000  C  0.595192
  C86      1.0000 0.95450  0.78510  0.32446  Biso   1.000  C  -0.091704
  C87      1.0000 0.26120  0.86470  0.55595  Biso   1.000  C  -0.145379
  C88      1.0000 0.15630  0.07815  0.28621  Biso   1.000  C  0.641777
  C89      1.0000 0.92185  0.84370  0.21379  Biso   1.000  C  0.641777
  C90      1.0000 0.62230  0.81115  0.93169  Biso   1.000  C  0.160044
  C91      1.0000 0.25180  0.06160  0.34901  Biso   1.000  C  -0.155357
  C92      1.0000 0.27980  0.84800  0.96832  Biso   1.000  C  -0.003590
  C93      1.0000 0.09310  0.45440  0.98136  Biso   1.000  C  0.595191
  C94      1.0000 0.30910  0.15455  0.11390  Biso   1.000  C  -0.101671
  C95      1.0000 0.83060  0.78510  0.32446  Biso   1.000  C  -0.091696
  C96      1.0000 0.80980  0.06160  0.34901  Biso   1.000  C  -0.155357
  C97      1.0000 0.72670  0.86335  0.63940  Biso   1.000  C  0.160510
  C98      1.0000 0.82995  0.17005  0.09390  Biso   1.000  C  -0.104506
  C99      1.0000 0.13665  0.86335  0.86060  Biso   1.000  C  0.160043
  C100     1.0000 0.81115  0.18885  0.06831  Biso   1.000  C  0.160138
  C101     1.0000 0.81115  0.62230  0.43169  Biso   1.000  C  0.160132
  C102     1.0000 0.72670  0.86335  0.86060  Biso   1.000  C  0.160524
  C103     1.0000 0.93840  0.19020  0.34901  Biso   1.000  C  -0.155360
  C104     1.0000 0.86335  0.13665  0.13940  Biso   1.000  C  0.160346
  C105     1.0000 0.07815  0.15630  0.78621  Biso   1.000  C  0.641384
  C106     1.0000 0.07815  0.15630  0.71379  Biso   1.000  C  0.641384
  C107     1.0000 0.25180  0.19020  0.15099  Biso   1.000  C  -0.155367
  C108     1.0000 0.45440  0.09310  0.01864  Biso   1.000  C  0.595184
  C109     1.0000 0.63870  0.09310  0.01864  Biso   1.000  C  0.595178
  C110     1.0000 0.39650  0.26120  0.44405  Biso   1.000  C  -0.145320
  C111     1.0000 0.44810  0.22405  0.48044  Biso   1.000  C  -0.124616
  C112     1.0000 0.16940  0.21490  0.82446  Biso   1.000  C  -0.091774
  C113     1.0000 0.04550  0.21490  0.67554  Biso   1.000  C  -0.092062
  C114     1.0000 0.27980  0.43180  0.96832  Biso   1.000  C  -0.003541
  C115     1.0000 0.21490  0.16940  0.17554  Biso   1.000  C  -0.091694
  C116     1.0000 0.95450  0.16940  0.32446  Biso   1.000  C  -0.091706
  C117     1.0000 0.13665  0.27330  0.63940  Biso   1.000  C  0.160511
  C118     1.0000 0.37770  0.18885  0.43169  Biso   1.000  C  0.160148
  C119     1.0000 0.82995  0.65990  0.40610  Biso   1.000  C  -0.104502
  C120     1.0000 0.19020  0.93840  0.84901  Biso   1.000  C  -0.155557
  C121     1.0000 0.72020  0.15200  0.46832  Biso   1.000  C  -0.003543
  C122     1.0000 0.72020  0.56820  0.03168  Biso   1.000  C  -0.003558
  C123     1.0000 0.15455  0.84545  0.88610  Biso   1.000  C  -0.101413
  C124     1.0000 0.92185  0.07815  0.21379  Biso   1.000  C  0.641778
  C125     1.0000 0.43180  0.15200  0.03168  Biso   1.000  C  -0.003538
  C126     1.0000 0.84370  0.92185  0.78621  Biso   1.000  C  0.641384
  C127     1.0000 0.27980  0.84800  0.53168  Biso   1.000  C  -0.003580
  C128     1.0000 0.26120  0.39650  0.55595  Biso   1.000  C  -0.145284
  C129     1.0000 0.56820  0.72020  0.96832  Biso   1.000  C  -0.003533
  C130     1.0000 0.69090  0.84545  0.61390  Biso   1.000  C  -0.101712
  C131     1.0000 0.45440  0.36130  0.01864  Biso   1.000  C  0.595186
  C132     1.0000 0.60350  0.86470  0.55595  Biso   1.000  C  -0.145275
  C133     1.0000 0.15455  0.30910  0.88610  Biso   1.000  C  -0.101721
  C134     1.0000 0.36130  0.90690  0.51864  Biso   1.000  C  0.595200
  C135     1.0000 0.90690  0.54560  0.01864  Biso   1.000  C  0.595196
  C136     1.0000 0.86335  0.72670  0.36060  Biso   1.000  C  0.160348
  C137     1.0000 0.84545  0.15455  0.38610  Biso   1.000  C  -0.101553
  C138     1.0000 0.18885  0.37770  0.93169  Biso   1.000  C  0.160050
  C139     1.0000 0.83060  0.04550  0.17554  Biso   1.000  C  -0.091718
  C140     1.0000 0.34010  0.17005  0.40610  Biso   1.000  C  -0.104637
  C141     1.0000 0.90200  0.09800  0.31160  Biso   1.000  C  -0.028076
  C142     1.0000 0.09800  0.19600  0.68840  Biso   1.000  C  -0.026018
  C143     1.0000 0.06160  0.25180  0.65099  Biso   1.000  C  -0.155158
  C144     1.0000 0.13665  0.27330  0.86060  Biso   1.000  C  0.160515
  C145     1.0000 0.56820  0.72020  0.53168  Biso   1.000  C  -0.003522
  C146     1.0000 0.15200  0.43180  0.96832  Biso   1.000  C  -0.003523
  C147     1.0000 0.13530  0.73880  0.94405  Biso   1.000  C  -0.145382
  C148     1.0000 0.16940  0.95450  0.67554  Biso   1.000  C  -0.091959
  C149     1.0000 0.54560  0.63870  0.51864  Biso   1.000  C  0.595190
  C150     1.0000 0.90200  0.09800  0.18840  Biso   1.000  C  -0.028076
  C151     1.0000 0.34010  0.17005  0.09390  Biso   1.000  C  -0.104504
  C152     1.0000 0.09800  0.19600  0.81160  Biso   1.000  C  -0.026021
  C153     1.0000 0.83060  0.04550  0.32446  Biso   1.000  C  -0.091717
  C154     1.0000 0.78510  0.95450  0.67554  Biso   1.000  C  -0.092076
  C155     1.0000 0.86335  0.72670  0.13940  Biso   1.000  C  0.160351
  C156     1.0000 0.56820  0.84800  0.96832  Biso   1.000  C  -0.003517
  C157     1.0000 0.90690  0.54560  0.48136  Biso   1.000  C  0.595198
  C158     1.0000 0.43180  0.15200  0.46832  Biso   1.000  C  -0.003532
  C159     1.0000 0.92185  0.07815  0.28621  Biso   1.000  C  0.641778
  C160     1.0000 0.30910  0.15455  0.38610  Biso   1.000  C  -0.101549
  C161     1.0000 0.54560  0.90690  0.98136  Biso   1.000  C  0.595179
  C162     1.0000 0.17005  0.82995  0.90610  Biso   1.000  C  -0.105028
  C163     1.0000 0.55190  0.77595  0.51956  Biso   1.000  C  -0.124536
  C164     1.0000 0.15455  0.84545  0.61390  Biso   1.000  C  -0.101293
  C165     1.0000 0.72020  0.15200  0.03168  Biso   1.000  C  -0.003550
  C166     1.0000 0.82995  0.65990  0.09390  Biso   1.000  C  -0.104496
  C167     1.0000 0.37770  0.18885  0.06831  Biso   1.000  C  0.160136
  C168     1.0000 0.74820  0.80980  0.84901  Biso   1.000  C  -0.155106
  C169     1.0000 0.26120  0.39650  0.94405  Biso   1.000  C  -0.145284
  C170     1.0000 0.95450  0.16940  0.17554  Biso   1.000  C  -0.091704
  C171     1.0000 0.21490  0.16940  0.32446  Biso   1.000  C  -0.091694
  C172     1.0000 0.44810  0.22405  0.01956  Biso   1.000  C  -0.124586
  C173     1.0000 0.62230  0.81115  0.56831  Biso   1.000  C  0.160057
  C174     1.0000 0.65990  0.82995  0.90610  Biso   1.000  C  -0.104168
  C175     1.0000 0.39650  0.26120  0.05595  Biso   1.000  C  -0.145326
  C176     1.0000 0.63870  0.09310  0.48136  Biso   1.000  C  0.595192
  C177     1.0000 0.78510  0.83060  0.67554  Biso   1.000  C  -0.091774
  C178     1.0000 0.45440  0.09310  0.48136  Biso   1.000  C  0.595198
  C179     1.0000 0.25180  0.19020  0.34901  Biso   1.000  C  -0.155369
  C180     1.0000 0.86335  0.13665  0.36060  Biso   1.000  C  0.160332
  C181     1.0000 0.93840  0.19020  0.15099  Biso   1.000  C  -0.155360
  C182     1.0000 0.81115  0.18885  0.43169  Biso   1.000  C  0.160148
  C183     1.0000 0.45440  0.36130  0.48136  Biso   1.000  C  0.595196
  C184     1.0000 0.81115  0.62230  0.06831  Biso   1.000  C  0.160128
  C185     1.0000 0.80400  0.90200  0.68840  Biso   1.000  C  -0.026017
  C186     1.0000 0.72020  0.56820  0.46832  Biso   1.000  C  -0.003545
  C187     1.0000 0.26120  0.86470  0.94405  Biso   1.000  C  -0.145375
  C188     1.0000 0.80980  0.06160  0.15099  Biso   1.000  C  -0.155356
  C189     1.0000 0.83060  0.78510  0.17554  Biso   1.000  C  -0.091697
  C190     1.0000 0.15200  0.72020  0.53168  Biso   1.000  C  -0.003580
  C191     1.0000 0.56820  0.84800  0.53168  Biso   1.000  C  -0.003510
  C192     1.0000 0.19020  0.93840  0.65099  Biso   1.000  C  -0.155560
  C193     1.0000 0.09800  0.90200  0.68840  Biso   1.000  C  -0.027551
  C194     1.0000 0.19020  0.25180  0.84901  Biso   1.000  C  -0.155109
  C195     1.0000 0.06160  0.80980  0.84901  Biso   1.000  C  -0.155561
  C196     1.0000 0.04550  0.83060  0.67554  Biso   1.000  C  -0.091946
  C197     1.0000 0.25180  0.06160  0.15099  Biso   1.000  C  -0.155356
  C198     1.0000 0.18885  0.37770  0.56831  Biso   1.000  C  0.160056
  C199     1.0000 0.21490  0.04550  0.32446  Biso   1.000  C  -0.091716
  C200     1.0000 0.92185  0.84370  0.28621  Biso   1.000  C  0.641777
  C201     1.0000 0.15630  0.07815  0.21379  Biso   1.000  C  0.641777
  C202     1.0000 0.95450  0.78510  0.17554  Biso   1.000  C  -0.091704
  C203     1.0000 0.90690  0.36130  0.01864  Biso   1.000  C  0.595183
  C204     1.0000 0.60350  0.73880  0.94405  Biso   1.000  C  -0.145289
  Cu1      1.0000 0.04586  0.52293  0.02120  Biso   1.000  Cu  0.845395
  Cu2      1.0000 0.52293  0.47707  0.52120  Biso   1.000  Cu  0.845453
  Cu3      1.0000 0.88018  0.94009  0.25000  Biso   1.000  Cu  0.864355
  Cu4      1.0000 0.47707  0.52293  0.47880  Biso   1.000  Cu  0.845452
  Cu5      1.0000 0.94009  0.88018  0.75000  Biso   1.000  Cu  0.861120
  Cu6      1.0000 0.47707  0.52293  0.02120  Biso   1.000  Cu  0.845408
  Cu7      1.0000 0.95414  0.47707  0.97880  Biso   1.000  Cu  0.845401
  Cu8      1.0000 0.52293  0.04586  0.52120  Biso   1.000  Cu  0.845443
  Cu9      1.0000 0.52293  0.47707  0.97880  Biso   1.000  Cu  0.845410
  Cu10     1.0000 0.05991  0.11982  0.25000  Biso   1.000  Cu  0.864357
  Cu11     1.0000 0.94009  0.05991  0.75000  Biso   1.000  Cu  0.861849
  Cu12     1.0000 0.04586  0.52293  0.47880  Biso   1.000  Cu  0.845438
  Cu13     1.0000 0.47707  0.95414  0.47880  Biso   1.000  Cu  0.845437
  Cu14     1.0000 0.95414  0.47707  0.52120  Biso   1.000  Cu  0.845443
  Cu15     1.0000 0.47707  0.95414  0.02120  Biso   1.000  Cu  0.845318
  Cu16     1.0000 0.05991  0.94009  0.25000  Biso   1.000  Cu  0.864383
  Cu17     1.0000 0.11982  0.05991  0.75000  Biso   1.000  Cu  0.861119
  Cu18     1.0000 0.52293  0.04586  0.97880  Biso   1.000  Cu  0.845324
  H1       1.0000 0.08670  0.38530  0.93590  Biso   1.000  H  0.130871
  H2       1.0000 0.23520  0.76480  0.50310  Biso   1.000  H  0.132128
  H3       1.0000 0.99650  0.79390  0.81640  Biso   1.000  H  0.114195
  H4       1.0000 0.38530  0.29860  0.06410  Biso   1.000  H  0.130872
  H5       1.0000 0.23810  0.26150  0.85730  Biso   1.000  H  0.130019
  H6       1.0000 0.20610  0.20260  0.68360  Biso   1.000  H  0.114548
  H7       1.0000 0.26150  0.23810  0.14270  Biso   1.000  H  0.129858
  H8       1.0000 0.97660  0.73850  0.35730  Biso   1.000  H  0.129859
  H9       1.0000 0.70140  0.61470  0.43590  Biso   1.000  H  0.130873
  H10      1.0000 0.61470  0.70140  0.56410  Biso   1.000  H  0.130877
  H11      1.0000 0.73850  0.76190  0.85730  Biso   1.000  H  0.130019
  H12      1.0000 0.23810  0.97660  0.85730  Biso   1.000  H  0.129732
  H13      1.0000 0.91330  0.29860  0.06410  Biso   1.000  H  0.130874
  H14      1.0000 0.23520  0.76480  0.99690  Biso   1.000  H  0.132116
  H15      1.0000 0.79390  0.79740  0.31640  Biso   1.000  H  0.114244
  H16      1.0000 0.08670  0.38530  0.56410  Biso   1.000  H  0.130873
  H17      1.0000 0.26150  0.23810  0.35730  Biso   1.000  H  0.129856
  H18      1.0000 0.99650  0.20260  0.81640  Biso   1.000  H  0.114421
  H19      1.0000 0.61470  0.91330  0.56410  Biso   1.000  H  0.130874
  H20      1.0000 0.91330  0.29860  0.43590  Biso   1.000  H  0.130876
  H21      1.0000 0.29860  0.38530  0.93590  Biso   1.000  H  0.130873
  H22      1.0000 0.29860  0.91330  0.56410  Biso   1.000  H  0.130878
  H23      1.0000 0.70140  0.61470  0.06410  Biso   1.000  H  0.130870
  H24      1.0000 0.29860  0.91330  0.93590  Biso   1.000  H  0.130876
  H25      1.0000 0.97660  0.73850  0.14270  Biso   1.000  H  0.129860
  H26      1.0000 0.08670  0.70140  0.93590  Biso   1.000  H  0.130876
  H27      1.0000 0.38530  0.29860  0.43590  Biso   1.000  H  0.130872
  H28      1.0000 0.76190  0.73850  0.35730  Biso   1.000  H  0.129855
  H29      1.0000 0.00350  0.79740  0.31640  Biso   1.000  H  0.114233
  H30      1.0000 0.00350  0.20610  0.18360  Biso   1.000  H  0.114235
  H31      1.0000 0.29860  0.38530  0.56410  Biso   1.000  H  0.130877
  H32      1.0000 0.79390  0.79740  0.18360  Biso   1.000  H  0.114242
  H33      1.0000 0.99650  0.79390  0.68360  Biso   1.000  H  0.114196
  H34      1.0000 0.73850  0.97660  0.85730  Biso   1.000  H  0.129982
  H35      1.0000 0.79740  0.79390  0.81640  Biso   1.000  H  0.114545
  H36      1.0000 0.79740  0.79390  0.68360  Biso   1.000  H  0.114546
  H37      1.0000 0.99650  0.20260  0.68360  Biso   1.000  H  0.114421
  H38      1.0000 0.76480  0.23520  0.49690  Biso   1.000  H  0.132154
  H39      1.0000 0.61470  0.91330  0.93590  Biso   1.000  H  0.130872
  H40      1.0000 0.79390  0.99650  0.31640  Biso   1.000  H  0.114244
  H41      1.0000 0.02340  0.26150  0.64270  Biso   1.000  H  0.129979
  H42      1.0000 0.38530  0.08670  0.06410  Biso   1.000  H  0.130874
  H43      1.0000 0.52960  0.76480  0.99690  Biso   1.000  H  0.132153
  H44      1.0000 0.23810  0.26150  0.64270  Biso   1.000  H  0.130016
  H45      1.0000 0.26150  0.02340  0.14270  Biso   1.000  H  0.129858
  H46      1.0000 0.91330  0.61470  0.06410  Biso   1.000  H  0.130870
  H47      1.0000 0.47040  0.23520  0.00310  Biso   1.000  H  0.132139
  H48      1.0000 0.97660  0.23810  0.35730  Biso   1.000  H  0.129856
  H49      1.0000 0.23810  0.97660  0.64270  Biso   1.000  H  0.129729
  H50      1.0000 0.76190  0.73850  0.14270  Biso   1.000  H  0.129857
  H51      1.0000 0.20260  0.99650  0.31640  Biso   1.000  H  0.114242
  H52      1.0000 0.76480  0.52960  0.49690  Biso   1.000  H  0.132151
  H53      1.0000 0.20610  0.00350  0.81640  Biso   1.000  H  0.114204
  H54      1.0000 0.20260  0.20610  0.31640  Biso   1.000  H  0.114243
  H55      1.0000 0.73850  0.76190  0.64270  Biso   1.000  H  0.130016
  H56      1.0000 0.76190  0.02340  0.35730  Biso   1.000  H  0.129856
  H57      1.0000 0.70140  0.08670  0.06410  Biso   1.000  H  0.130875
  H58      1.0000 0.02340  0.76190  0.64270  Biso   1.000  H  0.129729
  H59      1.0000 0.61470  0.70140  0.93590  Biso   1.000  H  0.130874
  H60      1.0000 0.70140  0.08670  0.43590  Biso   1.000  H  0.130875
  H61      1.0000 0.76190  0.02340  0.14270  Biso   1.000  H  0.129858
  H62      1.0000 0.20260  0.20610  0.18360  Biso   1.000  H  0.114241
  H63      1.0000 0.23520  0.47040  0.50310  Biso   1.000  H  0.132166
  H64      1.0000 0.52960  0.76480  0.50310  Biso   1.000  H  0.132166
  H65      1.0000 0.76480  0.52960  0.00310  Biso   1.000  H  0.132147
  H66      1.0000 0.20260  0.99650  0.18360  Biso   1.000  H  0.114243
  H67      1.0000 0.97660  0.23810  0.14270  Biso   1.000  H  0.129857
  H68      1.0000 0.47040  0.23520  0.49690  Biso   1.000  H  0.132151
  H69      1.0000 0.91330  0.61470  0.43590  Biso   1.000  H  0.130873
  H70      1.0000 0.26150  0.02340  0.35730  Biso   1.000  H  0.129855
  H71      1.0000 0.38530  0.08670  0.43590  Biso   1.000  H  0.130874
  H72      1.0000 0.23520  0.47040  0.99690  Biso   1.000  H  0.132162
  H73      1.0000 0.02340  0.26150  0.85730  Biso   1.000  H  0.129979
  H74      1.0000 0.79740  0.00350  0.81640  Biso   1.000  H  0.114429
  H75      1.0000 0.79390  0.99650  0.18360  Biso   1.000  H  0.114243
  H76      1.0000 0.76480  0.23520  0.00310  Biso   1.000  H  0.132142
  H77      1.0000 0.20610  0.20260  0.81640  Biso   1.000  H  0.114544
  H78      1.0000 0.20610  0.00350  0.68360  Biso   1.000  H  0.114203
  H79      1.0000 0.02340  0.76190  0.85730  Biso   1.000  H  0.129730
  H80      1.0000 0.00350  0.20610  0.31640  Biso   1.000  H  0.114233
  H81      1.0000 0.79740  0.00350  0.68360  Biso   1.000  H  0.114429
  H82      1.0000 0.08670  0.70140  0.56410  Biso   1.000  H  0.130877
  H83      1.0000 0.00350  0.79740  0.18360  Biso   1.000  H  0.114230
  H84      1.0000 0.73850  0.97660  0.64270  Biso   1.000  H  0.129977
  O1       1.0000 0.48320  0.37180  0.50332  Biso   1.000  O  -0.502987
  O2       1.0000 0.58960  0.55710  0.03258  Biso   1.000  O  -0.533139
  O3       1.0000 0.87300  0.86230  0.22288  Biso   1.000  O  -0.544678
  O4       1.0000 0.87300  0.01070  0.27712  Biso   1.000  O  -0.544695
  O5       1.0000 0.58960  0.03250  0.46742  Biso   1.000  O  -0.533149
  O6       1.0000 0.44290  0.41040  0.46742  Biso   1.000  O  -0.533128
  O7       1.0000 0.98930  0.86230  0.22288  Biso   1.000  O  -0.544699
  O8       1.0000 0.01070  0.13770  0.72288  Biso   1.000  O  -0.543950
  O9       1.0000 0.37180  0.88860  0.00332  Biso   1.000  O  -0.503033
  O10      1.0000 0.13770  0.12700  0.22288  Biso   1.000  O  -0.544679
  O11      1.0000 0.86230  0.87300  0.72288  Biso   1.000  O  -0.544124
  O12      1.0000 0.48320  0.11140  0.99668  Biso   1.000  O  -0.503014
  O13      1.0000 0.03250  0.44290  0.96742  Biso   1.000  O  -0.533155
  O14      1.0000 0.96750  0.41040  0.46742  Biso   1.000  O  -0.533149
  O15      1.0000 0.96750  0.41040  0.03258  Biso   1.000  O  -0.533041
  O16      1.0000 0.37180  0.88860  0.49668  Biso   1.000  O  -0.503001
  O17      1.0000 0.55710  0.58960  0.96742  Biso   1.000  O  -0.533036
  O18      1.0000 0.55710  0.96750  0.96742  Biso   1.000  O  -0.533059
  O19      1.0000 0.88860  0.37180  0.50332  Biso   1.000  O  -0.503014
  O20      1.0000 0.86230  0.98930  0.72288  Biso   1.000  O  -0.543951
  O21      1.0000 0.98930  0.86230  0.27712  Biso   1.000  O  -0.544699
  O22      1.0000 0.44290  0.41040  0.03258  Biso   1.000  O  -0.533020
  O23      1.0000 0.58960  0.03250  0.03258  Biso   1.000  O  -0.533065
  O24      1.0000 0.13770  0.12700  0.27712  Biso   1.000  O  -0.544679
  O25      1.0000 0.87300  0.01070  0.22288  Biso   1.000  O  -0.544694
  O26      1.0000 0.87300  0.86230  0.27712  Biso   1.000  O  -0.544679
  O27      1.0000 0.12700  0.13770  0.72288  Biso   1.000  O  -0.544123
  O28      1.0000 0.58960  0.55710  0.46742  Biso   1.000  O  -0.533127
  O29      1.0000 0.03250  0.44290  0.53258  Biso   1.000  O  -0.533143
  O30      1.0000 0.86230  0.87300  0.77712  Biso   1.000  O  -0.544123
  O31      1.0000 0.98930  0.12700  0.27712  Biso   1.000  O  -0.544695
  O32      1.0000 0.51680  0.62820  0.00332  Biso   1.000  O  -0.503006
  O33      1.0000 0.11140  0.48320  0.49668  Biso   1.000  O  -0.502995
  O34      1.0000 0.62820  0.11140  0.50332  Biso   1.000  O  -0.503014
  O35      1.0000 0.41040  0.96750  0.53258  Biso   1.000  O  -0.533114
  O36      1.0000 0.88860  0.51680  0.50332  Biso   1.000  O  -0.502983
  O37      1.0000 0.13770  0.01070  0.27712  Biso   1.000  O  -0.544700
  O38      1.0000 0.88860  0.51680  0.99668  Biso   1.000  O  -0.502988
  O39      1.0000 0.44290  0.03250  0.46742  Biso   1.000  O  -0.533126
  O40      1.0000 0.12700  0.98930  0.72288  Biso   1.000  O  -0.545859
  O41      1.0000 0.03250  0.58960  0.96742  Biso   1.000  O  -0.533007
  O42      1.0000 0.96750  0.55710  0.03258  Biso   1.000  O  -0.533138
  O43      1.0000 0.41040  0.44290  0.96742  Biso   1.000  O  -0.533156
  O44      1.0000 0.48320  0.11140  0.50332  Biso   1.000  O  -0.502982
  O45      1.0000 0.11140  0.62820  0.49668  Biso   1.000  O  -0.503001
  O46      1.0000 0.51680  0.88860  0.00332  Biso   1.000  O  -0.503027
  O47      1.0000 0.51680  0.88860  0.49668  Biso   1.000  O  -0.502995
  O48      1.0000 0.55710  0.96750  0.53258  Biso   1.000  O  -0.533143
  O49      1.0000 0.11140  0.62820  0.00332  Biso   1.000  O  -0.503013
  O50      1.0000 0.55710  0.58960  0.53258  Biso   1.000  O  -0.533143
  O51      1.0000 0.37180  0.48320  0.49668  Biso   1.000  O  -0.502995
  O52      1.0000 0.96750  0.55710  0.46742  Biso   1.000  O  -0.533126
  O53      1.0000 0.12700  0.98930  0.77712  Biso   1.000  O  -0.545858
  O54      1.0000 0.37180  0.48320  0.00332  Biso   1.000  O  -0.503000
  O55      1.0000 0.44290  0.03250  0.03258  Biso   1.000  O  -0.533042
  O56      1.0000 0.86230  0.98930  0.77712  Biso   1.000  O  -0.543950
  O57      1.0000 0.12700  0.13770  0.77712  Biso   1.000  O  -0.544123
  O58      1.0000 0.88860  0.37180  0.99668  Biso   1.000  O  -0.503026
  O59      1.0000 0.13770  0.01070  0.22288  Biso   1.000  O  -0.544699
  O60      1.0000 0.62820  0.11140  0.99668  Biso   1.000  O  -0.503046
  O61      1.0000 0.01070  0.87300  0.72288  Biso   1.000  O  -0.545859
  O62      1.0000 0.03250  0.58960  0.53258  Biso   1.000  O  -0.533114
  O63      1.0000 0.62820  0.51680  0.50332  Biso   1.000  O  -0.502987
  O64      1.0000 0.01070  0.13770  0.77712  Biso   1.000  O  -0.543950
  O65      1.0000 0.01070  0.87300  0.77712  Biso   1.000  O  -0.545859
  O66      1.0000 0.11140  0.48320  0.00332  Biso   1.000  O  -0.503001
  O67      1.0000 0.41040  0.44290  0.53258  Biso   1.000  O  -0.533143
  O68      1.0000 0.51680  0.62820  0.49668  Biso   1.000  O  -0.502995
  O69      1.0000 0.98930  0.12700  0.22288  Biso   1.000  O  -0.544695
  O70      1.0000 0.48320  0.37180  0.99668  Biso   1.000  O  -0.502998
  O71      1.0000 0.41040  0.96750  0.96742  Biso   1.000  O  -0.533030
  O72      1.0000 0.62820  0.51680  0.99668  Biso   1.000  O  -0.502992
