data_image0
_cell_length_a       8.007
_cell_length_b       15.88
_cell_length_c       29.445
_cell_angle_alpha    90
_cell_angle_beta     90
_cell_angle_gamma    90

_symmetry_space_group_name_H-M    "P 1"
_symmetry_int_tables_number       1

loop_
  _symmetry_equiv_pos_as_xyz
  'x, y, z'

loop_
  _atom_site_label
  _atom_site_occupancy
  _atom_site_fract_x
  _atom_site_fract_y
  _atom_site_fract_z
  _atom_site_thermal_displace_type
  _atom_site_B_iso_or_equiv
  _atom_site_type_symbol
  _atom_site_charge
  C1       1.0000 0.13110  0.65730  0.51587  Biso   1.000  C  0.591379
  C2       1.0000 0.09810  0.59920  0.47651  Biso   1.000  C  -0.022938
  C3       1.0000 0.18980  0.52550  0.47244  Biso   1.000  C  -0.119194
  C4       1.0000 0.15330  0.46770  0.43870  Biso   1.000  C  -0.028527
  C5       1.0000 0.02910  0.48530  0.40697  Biso   1.000  C  -0.082178
  C6       1.0000 0.94140  0.56090  0.40977  Biso   1.000  C  -0.087335
  C7       1.0000 0.97330  0.61660  0.44502  Biso   1.000  C  -0.086287
  C8       1.0000 0.25490  0.38850  0.43655  Biso   1.000  C  0.552016
  C9       1.0000 0.61080  0.79190  0.66564  Biso   1.000  C  0.583707
  C10      1.0000 0.66230  0.83300  0.70904  Biso   1.000  C  -0.009040
  C11      1.0000 0.75250  0.90780  0.70908  Biso   1.000  C  -0.089447
  C12      1.0000 0.36890  0.15730  0.48413  Biso   1.000  C  0.591379
  C13      1.0000 0.40190  0.09920  0.52349  Biso   1.000  C  -0.022937
  C14      1.0000 0.31020  0.02550  0.52756  Biso   1.000  C  -0.119194
  C15      1.0000 0.34670  0.96770  0.56130  Biso   1.000  C  -0.028528
  C16      1.0000 0.47090  0.98530  0.59303  Biso   1.000  C  -0.082177
  C17      1.0000 0.55860  0.06090  0.59023  Biso   1.000  C  -0.087336
  C18      1.0000 0.52670  0.11660  0.55498  Biso   1.000  C  -0.086287
  C19      1.0000 0.24510  0.88850  0.56345  Biso   1.000  C  0.552016
  C20      1.0000 0.88920  0.29190  0.33436  Biso   1.000  C  0.583707
  C21      1.0000 0.83770  0.33300  0.29096  Biso   1.000  C  -0.009040
  C22      1.0000 0.74750  0.40780  0.29092  Biso   1.000  C  -0.089447
  C23      1.0000 0.86890  0.34270  0.01587  Biso   1.000  C  0.591380
  C24      1.0000 0.90190  0.40080  0.97651  Biso   1.000  C  -0.022938
  C25      1.0000 0.81020  0.47450  0.97244  Biso   1.000  C  -0.119195
  C26      1.0000 0.84670  0.53230  0.93870  Biso   1.000  C  -0.028528
  C27      1.0000 0.97090  0.51470  0.90697  Biso   1.000  C  -0.082177
  C28      1.0000 0.05860  0.43910  0.90977  Biso   1.000  C  -0.087335
  C29      1.0000 0.02670  0.38340  0.94502  Biso   1.000  C  -0.086287
  C30      1.0000 0.74510  0.61150  0.93655  Biso   1.000  C  0.552016
  C31      1.0000 0.38920  0.20810  0.16564  Biso   1.000  C  0.583707
  C32      1.0000 0.33770  0.16700  0.20904  Biso   1.000  C  -0.009041
  C33      1.0000 0.24750  0.09220  0.20908  Biso   1.000  C  -0.089448
  C34      1.0000 0.63110  0.84270  0.98413  Biso   1.000  C  0.591379
  C35      1.0000 0.59810  0.90080  0.02349  Biso   1.000  C  -0.022938
  C36      1.0000 0.68980  0.97450  0.02756  Biso   1.000  C  -0.119194
  C37      1.0000 0.65330  0.03230  0.06130  Biso   1.000  C  -0.028528
  C38      1.0000 0.52910  0.01470  0.09303  Biso   1.000  C  -0.082177
  C39      1.0000 0.44140  0.93910  0.09023  Biso   1.000  C  -0.087335
  C40      1.0000 0.47330  0.88340  0.05498  Biso   1.000  C  -0.086288
  C41      1.0000 0.75490  0.11150  0.06345  Biso   1.000  C  0.552016
  C42      1.0000 0.11080  0.70810  0.83436  Biso   1.000  C  0.583706
  C43      1.0000 0.16230  0.66700  0.79096  Biso   1.000  C  -0.009041
  C44      1.0000 0.25250  0.59220  0.79092  Biso   1.000  C  -0.089447
  C45      1.0000 0.86890  0.34270  0.48413  Biso   1.000  C  0.591379
  C46      1.0000 0.90190  0.40080  0.52349  Biso   1.000  C  -0.022938
  C47      1.0000 0.81020  0.47450  0.52756  Biso   1.000  C  -0.119195
  C48      1.0000 0.84670  0.53230  0.56130  Biso   1.000  C  -0.028527
  C49      1.0000 0.97090  0.51470  0.59303  Biso   1.000  C  -0.082177
  C50      1.0000 0.05860  0.43910  0.59023  Biso   1.000  C  -0.087335
  C51      1.0000 0.02670  0.38340  0.55498  Biso   1.000  C  -0.086287
  C52      1.0000 0.74510  0.61150  0.56345  Biso   1.000  C  0.552016
  C53      1.0000 0.38920  0.20810  0.33436  Biso   1.000  C  0.583706
  C54      1.0000 0.33770  0.16700  0.29096  Biso   1.000  C  -0.009040
  C55      1.0000 0.24750  0.09220  0.29092  Biso   1.000  C  -0.089447
  C56      1.0000 0.63110  0.84270  0.51587  Biso   1.000  C  0.591379
  C57      1.0000 0.59810  0.90080  0.47651  Biso   1.000  C  -0.022938
  C58      1.0000 0.68980  0.97450  0.47244  Biso   1.000  C  -0.119194
  C59      1.0000 0.65330  0.03230  0.43870  Biso   1.000  C  -0.028528
  C60      1.0000 0.52910  0.01470  0.40697  Biso   1.000  C  -0.082177
  C61      1.0000 0.44140  0.93910  0.40977  Biso   1.000  C  -0.087335
  C62      1.0000 0.47330  0.88340  0.44502  Biso   1.000  C  -0.086287
  C63      1.0000 0.75490  0.11150  0.43655  Biso   1.000  C  0.552016
  C64      1.0000 0.11080  0.70810  0.66564  Biso   1.000  C  0.583706
  C65      1.0000 0.16230  0.66700  0.70904  Biso   1.000  C  -0.009040
  C66      1.0000 0.25250  0.59220  0.70908  Biso   1.000  C  -0.089447
  C67      1.0000 0.13110  0.65730  0.98413  Biso   1.000  C  0.591379
  C68      1.0000 0.09810  0.59920  0.02349  Biso   1.000  C  -0.022938
  C69      1.0000 0.18980  0.52550  0.02756  Biso   1.000  C  -0.119194
  C70      1.0000 0.15330  0.46770  0.06130  Biso   1.000  C  -0.028528
  C71      1.0000 0.02910  0.48530  0.09303  Biso   1.000  C  -0.082177
  C72      1.0000 0.94140  0.56090  0.09023  Biso   1.000  C  -0.087335
  C73      1.0000 0.97330  0.61660  0.05498  Biso   1.000  C  -0.086287
  C74      1.0000 0.25490  0.38850  0.06345  Biso   1.000  C  0.552015
  C75      1.0000 0.61080  0.79190  0.83436  Biso   1.000  C  0.583706
  C76      1.0000 0.66230  0.83300  0.79096  Biso   1.000  C  -0.009041
  C77      1.0000 0.75250  0.90780  0.79092  Biso   1.000  C  -0.089447
  C78      1.0000 0.36890  0.15730  0.01587  Biso   1.000  C  0.591379
  C79      1.0000 0.40190  0.09920  0.97651  Biso   1.000  C  -0.022938
  C80      1.0000 0.31020  0.02550  0.97244  Biso   1.000  C  -0.119195
  C81      1.0000 0.34670  0.96770  0.93870  Biso   1.000  C  -0.028528
  C82      1.0000 0.47090  0.98530  0.90697  Biso   1.000  C  -0.082177
  C83      1.0000 0.55860  0.06090  0.90977  Biso   1.000  C  -0.087335
  C84      1.0000 0.52670  0.11660  0.94502  Biso   1.000  C  -0.086287
  C85      1.0000 0.24510  0.88850  0.93655  Biso   1.000  C  0.552016
  C86      1.0000 0.88920  0.29190  0.16564  Biso   1.000  C  0.583706
  C87      1.0000 0.83770  0.33300  0.20904  Biso   1.000  C  -0.009041
  C88      1.0000 0.74750  0.40780  0.20908  Biso   1.000  C  -0.089448
  C89      1.0000 0.79630  0.94530  0.75000  Biso   1.000  C  -0.095928
  C90      1.0000 0.61410  0.79680  0.75000  Biso   1.000  C  -0.114027
  C91      1.0000 0.70370  0.44530  0.25000  Biso   1.000  C  -0.095928
  C92      1.0000 0.88590  0.29680  0.25000  Biso   1.000  C  -0.114027
  C93      1.0000 0.20370  0.05470  0.25000  Biso   1.000  C  -0.095928
  C94      1.0000 0.38590  0.20320  0.25000  Biso   1.000  C  -0.114027
  C95      1.0000 0.29630  0.55470  0.75000  Biso   1.000  C  -0.095928
  C96      1.0000 0.11410  0.70320  0.75000  Biso   1.000  C  -0.114027
  Eu1      1.0000 0.44995  0.70682  0.58896  Biso   1.000  Eu  1.338190
  Eu2      1.0000 0.05005  0.20682  0.41104  Biso   1.000  Eu  1.338188
  Eu3      1.0000 0.55005  0.29318  0.08896  Biso   1.000  Eu  1.338188
  Eu4      1.0000 0.94995  0.79318  0.91104  Biso   1.000  Eu  1.338188
  Eu5      1.0000 0.55005  0.29318  0.41104  Biso   1.000  Eu  1.338188
  Eu6      1.0000 0.94995  0.79318  0.58896  Biso   1.000  Eu  1.338188
  Eu7      1.0000 0.44995  0.70682  0.91104  Biso   1.000  Eu  1.338188
  Eu8      1.0000 0.05005  0.20682  0.08896  Biso   1.000  Eu  1.338188
  H1       1.0000 0.27680  0.51480  0.49260  Biso   1.000  H  0.130971
  H2       1.0000 0.00490  0.44690  0.38410  Biso   1.000  H  0.117340
  H3       1.0000 0.86140  0.57410  0.38800  Biso   1.000  H  0.110309
  H4       1.0000 0.91110  0.66590  0.44760  Biso   1.000  H  0.124061
  H5       1.0000 0.78350  0.93260  0.68180  Biso   1.000  H  0.115282
  H6       1.0000 0.22320  0.01480  0.50740  Biso   1.000  H  0.130971
  H7       1.0000 0.49510  0.94690  0.61590  Biso   1.000  H  0.117340
  H8       1.0000 0.63860  0.07410  0.61200  Biso   1.000  H  0.110308
  H9       1.0000 0.58890  0.16590  0.55240  Biso   1.000  H  0.124060
  H10      1.0000 0.71650  0.43260  0.31820  Biso   1.000  H  0.115282
  H11      1.0000 0.72320  0.48520  0.99260  Biso   1.000  H  0.130971
  H12      1.0000 0.99510  0.55310  0.88410  Biso   1.000  H  0.117340
  H13      1.0000 0.13860  0.42590  0.88800  Biso   1.000  H  0.110309
  H14      1.0000 0.08890  0.33410  0.94760  Biso   1.000  H  0.124060
  H15      1.0000 0.21650  0.06740  0.18180  Biso   1.000  H  0.115282
  H16      1.0000 0.77680  0.98520  0.00740  Biso   1.000  H  0.130971
  H17      1.0000 0.50490  0.05310  0.11590  Biso   1.000  H  0.117340
  H18      1.0000 0.36140  0.92590  0.11200  Biso   1.000  H  0.110309
  H19      1.0000 0.41110  0.83410  0.05240  Biso   1.000  H  0.124061
  H20      1.0000 0.28350  0.56740  0.81820  Biso   1.000  H  0.115281
  H21      1.0000 0.72320  0.48520  0.50740  Biso   1.000  H  0.130971
  H22      1.0000 0.99510  0.55310  0.61590  Biso   1.000  H  0.117340
  H23      1.0000 0.13860  0.42590  0.61200  Biso   1.000  H  0.110308
  H24      1.0000 0.08890  0.33410  0.55240  Biso   1.000  H  0.124060
  H25      1.0000 0.21650  0.06740  0.31820  Biso   1.000  H  0.115282
  H26      1.0000 0.77680  0.98520  0.49260  Biso   1.000  H  0.130971
  H27      1.0000 0.50490  0.05310  0.38410  Biso   1.000  H  0.117340
  H28      1.0000 0.36140  0.92590  0.38800  Biso   1.000  H  0.110309
  H29      1.0000 0.41110  0.83410  0.44760  Biso   1.000  H  0.124061
  H30      1.0000 0.28350  0.56740  0.68180  Biso   1.000  H  0.115281
  H31      1.0000 0.27680  0.51480  0.00740  Biso   1.000  H  0.130971
  H32      1.0000 0.00490  0.44690  0.11590  Biso   1.000  H  0.117340
  H33      1.0000 0.86140  0.57410  0.11200  Biso   1.000  H  0.110309
  H34      1.0000 0.91110  0.66590  0.05240  Biso   1.000  H  0.124061
  H35      1.0000 0.78350  0.93260  0.81820  Biso   1.000  H  0.115281
  H36      1.0000 0.22320  0.01480  0.99260  Biso   1.000  H  0.130971
  H37      1.0000 0.49510  0.94690  0.88410  Biso   1.000  H  0.117340
  H38      1.0000 0.63860  0.07410  0.88800  Biso   1.000  H  0.110309
  H39      1.0000 0.58890  0.16590  0.94760  Biso   1.000  H  0.124060
  H40      1.0000 0.71650  0.43260  0.18180  Biso   1.000  H  0.115282
  H41      1.0000 0.85520  0.99570  0.75000  Biso   1.000  H  0.111586
  H42      1.0000 0.54940  0.74810  0.75000  Biso   1.000  H  0.128745
  H43      1.0000 0.64480  0.49570  0.25000  Biso   1.000  H  0.111586
  H44      1.0000 0.95060  0.24810  0.25000  Biso   1.000  H  0.128746
  H45      1.0000 0.14480  0.00430  0.25000  Biso   1.000  H  0.111586
  H46      1.0000 0.45060  0.25190  0.25000  Biso   1.000  H  0.128746
  H47      1.0000 0.35520  0.50430  0.75000  Biso   1.000  H  0.111587
  H48      1.0000 0.04940  0.75190  0.75000  Biso   1.000  H  0.128745
  O1       1.0000 0.27000  0.64955  0.53544  Biso   1.000  O  -0.497240
  O2       1.0000 0.01840  0.70849  0.52665  Biso   1.000  O  -0.515065
  O3       1.0000 0.22400  0.33302  0.40625  Biso   1.000  O  -0.576237
  O4       1.0000 0.67240  0.81670  0.62796  Biso   1.000  O  -0.576956
  O5       1.0000 0.37620  0.38105  0.46286  Biso   1.000  O  -0.460927
  O6       1.0000 0.50300  0.73447  0.66708  Biso   1.000  O  -0.527071
  O7       1.0000 0.23000  0.14955  0.46456  Biso   1.000  O  -0.497240
  O8       1.0000 0.48160  0.20849  0.47335  Biso   1.000  O  -0.515065
  O9       1.0000 0.27600  0.83302  0.59375  Biso   1.000  O  -0.576237
  O10      1.0000 0.82760  0.31670  0.37204  Biso   1.000  O  -0.576955
  O11      1.0000 0.12380  0.88105  0.53714  Biso   1.000  O  -0.460927
  O12      1.0000 0.99700  0.23447  0.33292  Biso   1.000  O  -0.527070
  O13      1.0000 0.73000  0.35045  0.03544  Biso   1.000  O  -0.497241
  O14      1.0000 0.98160  0.29151  0.02665  Biso   1.000  O  -0.515065
  O15      1.0000 0.77600  0.66698  0.90625  Biso   1.000  O  -0.576237
  O16      1.0000 0.32760  0.18330  0.12796  Biso   1.000  O  -0.576955
  O17      1.0000 0.62380  0.61895  0.96286  Biso   1.000  O  -0.460926
  O18      1.0000 0.49700  0.26553  0.16708  Biso   1.000  O  -0.527070
  O19      1.0000 0.77000  0.85045  0.96456  Biso   1.000  O  -0.497241
  O20      1.0000 0.51840  0.79151  0.97335  Biso   1.000  O  -0.515066
  O21      1.0000 0.72400  0.16698  0.09375  Biso   1.000  O  -0.576237
  O22      1.0000 0.17240  0.68330  0.87204  Biso   1.000  O  -0.576954
  O23      1.0000 0.87620  0.11895  0.03714  Biso   1.000  O  -0.460927
  O24      1.0000 0.00300  0.76553  0.83292  Biso   1.000  O  -0.527069
  O25      1.0000 0.73000  0.35045  0.46456  Biso   1.000  O  -0.497240
  O26      1.0000 0.98160  0.29151  0.47335  Biso   1.000  O  -0.515065
  O27      1.0000 0.77600  0.66698  0.59375  Biso   1.000  O  -0.576238
  O28      1.0000 0.32760  0.18330  0.37204  Biso   1.000  O  -0.576953
  O29      1.0000 0.62380  0.61895  0.53714  Biso   1.000  O  -0.460928
  O30      1.0000 0.49700  0.26553  0.33292  Biso   1.000  O  -0.527068
  O31      1.0000 0.77000  0.85045  0.53544  Biso   1.000  O  -0.497240
  O32      1.0000 0.51840  0.79151  0.52665  Biso   1.000  O  -0.515066
  O33      1.0000 0.72400  0.16698  0.40625  Biso   1.000  O  -0.576237
  O34      1.0000 0.17240  0.68330  0.62796  Biso   1.000  O  -0.576953
  O35      1.0000 0.87620  0.11895  0.46286  Biso   1.000  O  -0.460926
  O36      1.0000 0.00300  0.76553  0.66708  Biso   1.000  O  -0.527069
  O37      1.0000 0.27000  0.64955  0.96456  Biso   1.000  O  -0.497241
  O38      1.0000 0.01840  0.70849  0.97335  Biso   1.000  O  -0.515066
  O39      1.0000 0.22400  0.33302  0.09375  Biso   1.000  O  -0.576237
  O40      1.0000 0.67240  0.81670  0.87204  Biso   1.000  O  -0.576954
  O41      1.0000 0.37620  0.38105  0.03714  Biso   1.000  O  -0.460926
  O42      1.0000 0.50300  0.73447  0.83292  Biso   1.000  O  -0.527070
  O43      1.0000 0.23000  0.14955  0.03544  Biso   1.000  O  -0.497240
  O44      1.0000 0.48160  0.20849  0.02665  Biso   1.000  O  -0.515065
  O45      1.0000 0.27600  0.83302  0.90625  Biso   1.000  O  -0.576237
  O46      1.0000 0.82760  0.31670  0.12796  Biso   1.000  O  -0.576953
  O47      1.0000 0.12380  0.88105  0.96286  Biso   1.000  O  -0.460926
  O48      1.0000 0.99700  0.23447  0.16708  Biso   1.000  O  -0.527068
