
##########################################################################
#               Crystallographic Information Format file
#               Produced by PyCifRW module
#
#  This is a CIF file.  CIF has been adopted by the International
#  Union of Crystallography as the standard for data archiving and
#  transmission.
#
#  For information on this file format, follow the CIF links at
#  http://www.iucr.org
##########################################################################

data_image0

_cell_length_a                          9.9638
_cell_length_b                          18.082
_cell_length_c                          18.45
_cell_angle_alpha                       90
_cell_angle_beta                        90
_cell_angle_gamma                       90
_symmetry_space_group_name_H-M          'P 1'
_symmetry_int_tables_number             1
loop_
  _symmetry_equiv_pos_as_xyz
         'x, y, z' 
loop_
  _atom_site_label
  _atom_site_occupancy
  _atom_site_fract_x
  _atom_site_fract_y
  _atom_site_fract_z
  _atom_site_thermal_displace_type
  _atom_site_B_iso_or_equiv
  _atom_site_type_symbol
  _atom_site_charge
         C1        1.0000    0.09980   0.63610   0.42920   Biso      1.000     C          0.569836  
         C2        1.0000    0.21910   0.98830   0.93680   Biso      1.000     C          0.578065  
         C3        1.0000    0.22810   0.81470   0.81160   Biso      1.000     C          0.57233   
         C4        1.0000    0.63200   0.86700   0.72080   Biso      1.000     C          0.567802  
         C5        1.0000    0.51940   0.09590   0.86310   Biso      1.000     C          0.567212  
         C6        1.0000    0.59980   0.86390   0.92920   Biso      1.000     C          0.569837  
         C7        1.0000    0.16570   0.50110   0.82670   Biso      1.000     C          0.569164  
         C8        1.0000    0.28090   0.48830   0.56320   Biso      1.000     C          0.578065  
         C9        1.0000    0.27190   0.31470   0.68840   Biso      1.000     C          0.57233   
         C10       1.0000    0.86800   0.36700   0.77920   Biso      1.000     C          0.567802  
         C11       1.0000    0.98060   0.59590   0.63690   Biso      1.000     C          0.567212  
         C12       1.0000    0.90020   0.36390   0.57080   Biso      1.000     C          0.569837  
         C13       1.0000    0.66570   0.49890   0.67330   Biso      1.000     C          0.569164  
         C14       1.0000    0.78090   0.51170   0.93680   Biso      1.000     C          0.578065  
         C15       1.0000    0.77190   0.68530   0.81160   Biso      1.000     C          0.57233   
         C16       1.0000    0.36800   0.63300   0.72080   Biso      1.000     C          0.567802  
         C17       1.0000    0.48060   0.40410   0.86310   Biso      1.000     C          0.567212  
         C18       1.0000    0.40020   0.63610   0.92920   Biso      1.000     C          0.569837  
         C19       1.0000    0.83430   0.99890   0.82670   Biso      1.000     C          0.569164  
         C20       1.0000    0.71910   0.01170   0.56320   Biso      1.000     C          0.578065  
         C21       1.0000    0.72810   0.18530   0.68840   Biso      1.000     C          0.57233   
         C22       1.0000    0.13200   0.13300   0.77920   Biso      1.000     C          0.567802  
         C23       1.0000    0.33430   0.00110   0.67330   Biso      1.000     C          0.569164  
         C24       1.0000    0.01940   0.90410   0.63690   Biso      1.000     C          0.567212  
         C25       1.0000    0.09980   0.13610   0.57080   Biso      1.000     C          0.569837  
         C26       1.0000    0.83430   0.49890   0.17330   Biso      1.000     C          0.569164  
         C27       1.0000    0.78090   0.01170   0.06320   Biso      1.000     C          0.578065  
         C28       1.0000    0.66570   0.99890   0.32670   Biso      1.000     C          0.569164  
         C29       1.0000    0.77190   0.18530   0.18840   Biso      1.000     C          0.57233   
         C30       1.0000    0.36800   0.13300   0.27920   Biso      1.000     C          0.567802  
         C31       1.0000    0.48060   0.90410   0.13690   Biso      1.000     C          0.567212  
         C32       1.0000    0.40020   0.13610   0.07080   Biso      1.000     C          0.569836  
         C33       1.0000    0.71910   0.51170   0.43680   Biso      1.000     C          0.578065  
         C34       1.0000    0.72810   0.68530   0.31160   Biso      1.000     C          0.57233   
         C35       1.0000    0.13200   0.63300   0.22080   Biso      1.000     C          0.567802  
         C36       1.0000    0.33430   0.50110   0.32670   Biso      1.000     C          0.569164  
         C37       1.0000    0.01940   0.40410   0.36310   Biso      1.000     C          0.567212  
         C38       1.0000    0.22810   0.31470   0.18840   Biso      1.000     C          0.57233   
         C39       1.0000    0.63200   0.36700   0.27920   Biso      1.000     C          0.567802  
         C40       1.0000    0.51940   0.59590   0.13690   Biso      1.000     C          0.567212  
         C41       1.0000    0.59980   0.36390   0.07080   Biso      1.000     C          0.569837  
         C42       1.0000    0.16570   0.00110   0.17330   Biso      1.000     C          0.569164  
         C43       1.0000    0.28090   0.98830   0.43680   Biso      1.000     C          0.578065  
         C44       1.0000    0.27190   0.81470   0.31160   Biso      1.000     C          0.57233   
         C45       1.0000    0.86800   0.86700   0.22080   Biso      1.000     C          0.567802  
         C46       1.0000    0.98060   0.09590   0.36310   Biso      1.000     C          0.567212  
         C47       1.0000    0.90020   0.86390   0.42920   Biso      1.000     C          0.569837  
         C48       1.0000    0.21910   0.48830   0.06320   Biso      1.000     C          0.578065  
         H1        1.0000    0.23270   0.00440   0.13830   Biso      1.000     H          0.02708   
         H2        1.0000    0.69680   0.37420   0.31480   Biso      1.000     H          0.019197  
         H3        1.0000    0.53850   0.64400   0.15140   Biso      1.000     H          0.030153  
         H4        1.0000    0.65370   0.36520   0.02970   Biso      1.000     H          0.025973  
         H5        1.0000    0.37170   0.99300   0.44770   Biso      1.000     H          0.018581  
         H6        1.0000    0.12830   0.99300   0.94770   Biso      1.000     H          0.018581  
         H7        1.0000    0.80320   0.87420   0.18520   Biso      1.000     H          0.019197  
         H8        1.0000    0.96150   0.14400   0.34860   Biso      1.000     H          0.030153  
         H9        1.0000    0.84630   0.86520   0.47030   Biso      1.000     H          0.025973  
         H10       1.0000    0.20960   0.26460   0.18260   Biso      1.000     H          0.022882  
         H11       1.0000    0.29040   0.76460   0.31740   Biso      1.000     H          0.022882  
         H12       1.0000    0.12830   0.49300   0.05230   Biso      1.000     H          0.018581  
         H13       1.0000    0.26730   0.50440   0.36170   Biso      1.000     H          0.02708   
         H14       1.0000    0.15370   0.63480   0.47030   Biso      1.000     H          0.025973  
         H15       1.0000    0.30320   0.62580   0.68520   Biso      1.000     H          0.019197  
         H16       1.0000    0.79040   0.73540   0.81740   Biso      1.000     H          0.022882  
         H17       1.0000    0.87170   0.50700   0.94770   Biso      1.000     H          0.018582  
         H18       1.0000    0.73270   0.49560   0.63830   Biso      1.000     H          0.02708   
         H19       1.0000    0.84630   0.36520   0.52970   Biso      1.000     H          0.025973  
         H20       1.0000    0.96150   0.64400   0.65140   Biso      1.000     H          0.030153  
         H21       1.0000    0.46150   0.35600   0.84860   Biso      1.000     H          0.030153  
         H22       1.0000    0.80320   0.37420   0.81480   Biso      1.000     H          0.019197  
         H23       1.0000    0.37170   0.49300   0.55230   Biso      1.000     H          0.018581  
         H24       1.0000    0.23270   0.50440   0.86170   Biso      1.000     H          0.02708   
         H25       1.0000    0.65370   0.86520   0.97030   Biso      1.000     H          0.025973  
         H26       1.0000    0.53850   0.14400   0.84860   Biso      1.000     H          0.030152  
         H27       1.0000    0.69680   0.87420   0.68520   Biso      1.000     H          0.019197  
         H28       1.0000    0.20960   0.76460   0.81740   Biso      1.000     H          0.022882  
         H29       1.0000    0.29040   0.26460   0.68260   Biso      1.000     H          0.022882  
         H30       1.0000    0.26730   0.00440   0.63830   Biso      1.000     H          0.02708   
         H31       1.0000    0.34630   0.63480   0.97030   Biso      1.000     H          0.025973  
         H32       1.0000    0.62830   0.00700   0.55230   Biso      1.000     H          0.018582  
         H33       1.0000    0.03850   0.35600   0.34860   Biso      1.000     H          0.030152  
         H34       1.0000    0.19680   0.62580   0.18520   Biso      1.000     H          0.019197  
         H35       1.0000    0.70960   0.73540   0.31740   Biso      1.000     H          0.022882  
         H36       1.0000    0.62830   0.50700   0.44770   Biso      1.000     H          0.018582  
         H37       1.0000    0.76730   0.49560   0.13830   Biso      1.000     H          0.02708   
         H38       1.0000    0.34630   0.13480   0.02970   Biso      1.000     H          0.025973  
         H39       1.0000    0.76730   0.99560   0.86170   Biso      1.000     H          0.02708   
         H40       1.0000    0.46150   0.85600   0.15140   Biso      1.000     H          0.030152  
         H41       1.0000    0.79040   0.23540   0.18260   Biso      1.000     H          0.022882  
         H42       1.0000    0.87170   0.00700   0.05230   Biso      1.000     H          0.018582  
         H43       1.0000    0.73270   0.99560   0.36170   Biso      1.000     H          0.02708   
         H44       1.0000    0.03850   0.85600   0.65140   Biso      1.000     H          0.030152  
         H45       1.0000    0.19680   0.12580   0.81480   Biso      1.000     H          0.019197  
         H46       1.0000    0.70960   0.23540   0.68260   Biso      1.000     H          0.022882  
         H47       1.0000    0.30320   0.12580   0.31480   Biso      1.000     H          0.019197  
         H48       1.0000    0.15370   0.13480   0.52970   Biso      1.000     H          0.025973  
         Mg1       1.0000    0.42491   0.94144   0.82153   Biso      1.000     Mg          1.338678  
         Mg2       1.0000    0.50000   0.25000   0.18441   Biso      1.000     Mg          1.348911  
         Mg3       1.0000    0.00000   0.75000   0.31559   Biso      1.000     Mg          1.348911  
         Mg4       1.0000    0.07509   0.44144   0.67847   Biso      1.000     Mg          1.338678  
         Mg5       1.0000    0.88421   0.53518   0.78283   Biso      1.000     Mg          1.335469  
         Mg6       1.0000    0.57509   0.55856   0.82153   Biso      1.000     Mg          1.338678  
         Mg7       1.0000    0.38421   0.46482   0.71717   Biso      1.000     Mg          1.335469  
         Mg8       1.0000    0.92491   0.05856   0.67847   Biso      1.000     Mg          1.338678  
         Mg9       1.0000    0.11579   0.96482   0.78283   Biso      1.000     Mg          1.335469  
         Mg10      1.0000    0.57509   0.05856   0.17847   Biso      1.000     Mg          1.338678  
         Mg11      1.0000    0.38421   0.96482   0.28283   Biso      1.000     Mg          1.335469  
         Mg12      1.0000    0.92491   0.55856   0.32153   Biso      1.000     Mg          1.338678  
         Mg13      1.0000    0.11579   0.46482   0.21717   Biso      1.000     Mg          1.335469  
         Mg14      1.0000    0.61579   0.03518   0.71717   Biso      1.000     Mg          1.335469  
         Mg15      1.0000    0.61579   0.53518   0.28283   Biso      1.000     Mg          1.335469  
         Mg16      1.0000    0.07509   0.94144   0.32153   Biso      1.000     Mg          1.338678  
         Mg17      1.0000    0.88421   0.03518   0.21717   Biso      1.000     Mg          1.335469  
         Mg18      1.0000    0.50000   0.00000   0.00000   Biso      1.000     Mg          1.343663  
         Mg19      1.0000    0.00000   0.50000   0.50000   Biso      1.000     Mg          1.343663  
         Mg20      1.0000    0.50000   0.50000   0.00000   Biso      1.000     Mg          1.343663  
         Mg21      1.0000    0.00000   0.00000   0.50000   Biso      1.000     Mg          1.343663  
         Mg22      1.0000    0.50000   0.75000   0.81559   Biso      1.000     Mg          1.348911  
         Mg23      1.0000    0.00000   0.25000   0.68441   Biso      1.000     Mg          1.348911  
         Mg24      1.0000    0.42491   0.44144   0.17847   Biso      1.000     Mg          1.338678  
         O1        1.0000    0.55440   0.97280   0.34238   Biso      1.000     O          -0.582634           
         O2        1.0000    0.84950   0.66631   0.31657   Biso      1.000     O          -0.683046           
         O3        1.0000    0.63220   0.64490   0.30000   Biso      1.000     O          -0.585908           
         O4        1.0000    0.10420   0.69730   0.23542   Biso      1.000     O          -0.572234           
         O5        1.0000    0.08240   0.57585   0.24863   Biso      1.000     O          -0.679396           
         O6        1.0000    0.02860   0.57916   0.41618   Biso      1.000     O          -0.69351  
         O7        1.0000    0.74820   0.52038   0.37154   Biso      1.000     O          -0.68024  
         O8        1.0000    0.94560   0.47280   0.15762   Biso      1.000     O          -0.582634           
         O9        1.0000    0.01380   0.45312   0.31404   Biso      1.000     O          -0.68874  
         O10       1.0000    0.80360   0.52957   0.23273   Biso      1.000     O          -0.685774           
         O11       1.0000    0.75180   0.02038   0.12846   Biso      1.000     O          -0.68024  
         O12       1.0000    0.70390   0.00890   0.01247   Biso      1.000     O          -0.579191           
         O13       1.0000    0.39620   0.19270   0.10773   Biso      1.000     O          -0.580725           
         O14       1.0000    0.39580   0.19730   0.26458   Biso      1.000     O          -0.572234           
         O15       1.0000    0.47140   0.07916   0.08382   Biso      1.000     O          -0.69351  
         O16       1.0000    0.41760   0.07585   0.25137   Biso      1.000     O          -0.679396           
         O17       1.0000    0.48620   0.95312   0.18596   Biso      1.000     O          -0.68874  
         O18       1.0000    0.86780   0.14490   0.20000   Biso      1.000     O          -0.585908           
         O19       1.0000    0.65050   0.16631   0.18343   Biso      1.000     O          -0.683046           
         O20       1.0000    0.10380   0.69270   0.39227   Biso      1.000     O          -0.580725           
         O21       1.0000    0.49850   0.91490   0.07193   Biso      1.000     O          -0.577309           
         O22       1.0000    0.79610   0.50890   0.48753   Biso      1.000     O          -0.579191           
         O23       1.0000    0.60380   0.30730   0.10773   Biso      1.000     O          -0.580725           
         O24       1.0000    0.30360   0.47043   0.26727   Biso      1.000     O          -0.685774           
         O25       1.0000    0.89620   0.80730   0.39227   Biso      1.000     O          -0.580725           
         O26       1.0000    0.89580   0.80270   0.23542   Biso      1.000     O          -0.572234           
         O27       1.0000    0.25180   0.97962   0.37154   Biso      1.000     O          -0.68024  
         O28       1.0000    0.97140   0.92084   0.41618   Biso      1.000     O          -0.69351  
         O29       1.0000    0.91760   0.92415   0.24863   Biso      1.000     O          -0.679396           
         O30       1.0000    0.98620   0.04688   0.31404   Biso      1.000     O          -0.68874  
         O31       1.0000    0.36780   0.85510   0.30000   Biso      1.000     O          -0.585908           
         O32       1.0000    0.15050   0.83369   0.31657   Biso      1.000     O          -0.683046           
         O33       1.0000    0.05440   0.02720   0.15762   Biso      1.000     O          -0.582634           
         O34       1.0000    0.19640   0.97043   0.23273   Biso      1.000     O          -0.685775           
         O35       1.0000    0.50150   0.58510   0.07193   Biso      1.000     O          -0.577309           
         O36       1.0000    0.29610   0.49110   0.01247   Biso      1.000     O          -0.579191           
         O37       1.0000    0.69640   0.02957   0.26727   Biso      1.000     O          -0.685774           
         O38       1.0000    0.60420   0.30270   0.26458   Biso      1.000     O          -0.572234           
         O39       1.0000    0.24820   0.47962   0.12846   Biso      1.000     O          -0.68024  
         O40       1.0000    0.52860   0.42084   0.08382   Biso      1.000     O          -0.69351  
         O41       1.0000    0.58240   0.42415   0.25137   Biso      1.000     O          -0.679396           
         O42       1.0000    0.51380   0.54688   0.18596   Biso      1.000     O          -0.68874  
         O43       1.0000    0.13220   0.35510   0.20000   Biso      1.000     O          -0.585908           
         O44       1.0000    0.34950   0.33369   0.18343   Biso      1.000     O          -0.683046           
         O45       1.0000    0.44560   0.52720   0.34238   Biso      1.000     O          -0.582634           
         O46       1.0000    0.00150   0.41490   0.42807   Biso      1.000     O          -0.577309           
         O47       1.0000    0.00150   0.91490   0.57193   Biso      1.000     O          -0.577309           
         O48       1.0000    0.80360   0.02957   0.76727   Biso      1.000     O          -0.685774           
         O49       1.0000    0.10380   0.19270   0.60773   Biso      1.000     O          -0.580725           
         O50       1.0000    0.97140   0.42084   0.58382   Biso      1.000     O          -0.69351  
         O51       1.0000    0.91760   0.42415   0.75137   Biso      1.000     O          -0.679396           
         O52       1.0000    0.98620   0.54688   0.68596   Biso      1.000     O          -0.68874  
         O53       1.0000    0.36780   0.35510   0.70000   Biso      1.000     O          -0.585908           
         O54       1.0000    0.15050   0.33369   0.68343   Biso      1.000     O          -0.683046           
         O55       1.0000    0.05440   0.52720   0.84238   Biso      1.000     O          -0.582634           
         O56       1.0000    0.19640   0.47043   0.76727   Biso      1.000     O          -0.685774           
         O57       1.0000    0.50150   0.08510   0.92807   Biso      1.000     O          -0.577309           
         O58       1.0000    0.29610   0.99110   0.98753   Biso      1.000     O          -0.579191           
         O59       1.0000    0.25180   0.47962   0.62846   Biso      1.000     O          -0.68024  
         O60       1.0000    0.60380   0.80730   0.89227   Biso      1.000     O          -0.580725           
         O61       1.0000    0.24820   0.97962   0.87154   Biso      1.000     O          -0.68024  
         O62       1.0000    0.52860   0.92084   0.91618   Biso      1.000     O          -0.69351  
         O63       1.0000    0.58240   0.92415   0.74863   Biso      1.000     O          -0.679396           
         O64       1.0000    0.51380   0.04688   0.81404   Biso      1.000     O          -0.68874  
         O65       1.0000    0.13220   0.85510   0.80000   Biso      1.000     O          -0.585908           
         O66       1.0000    0.34950   0.83369   0.81657   Biso      1.000     O          -0.683046           
         O67       1.0000    0.44560   0.02720   0.65762   Biso      1.000     O          -0.582634           
         O68       1.0000    0.30360   0.97043   0.73273   Biso      1.000     O          -0.685774           
         O69       1.0000    0.20390   0.99110   0.48753   Biso      1.000     O          -0.579191           
         O70       1.0000    0.60420   0.80270   0.73542   Biso      1.000     O          -0.572234           
         O71       1.0000    0.89580   0.30270   0.76458   Biso      1.000     O          -0.572234           
         O72       1.0000    0.89620   0.30730   0.60773   Biso      1.000     O          -0.580725           
         O73       1.0000    0.20390   0.49110   0.51247   Biso      1.000     O          -0.579191           
         O74       1.0000    0.10420   0.19730   0.76458   Biso      1.000     O          -0.572234           
         O75       1.0000    0.74820   0.02038   0.62846   Biso      1.000     O          -0.68024  
         O76       1.0000    0.02860   0.07916   0.58382   Biso      1.000     O          -0.69351  
         O77       1.0000    0.08240   0.07585   0.75137   Biso      1.000     O          -0.679396           
         O78       1.0000    0.01380   0.95312   0.68596   Biso      1.000     O          -0.68874  
         O79       1.0000    0.63220   0.14490   0.70000   Biso      1.000     O          -0.585908           
         O80       1.0000    0.84950   0.16631   0.68343   Biso      1.000     O          -0.683046           
         O81       1.0000    0.94560   0.97280   0.84238   Biso      1.000     O          -0.582634           
         O82       1.0000    0.49850   0.41490   0.92807   Biso      1.000     O          -0.577309           
         O83       1.0000    0.70390   0.50890   0.98753   Biso      1.000     O          -0.579191           
         O84       1.0000    0.39620   0.69270   0.89227   Biso      1.000     O          -0.580725           
         O85       1.0000    0.39580   0.69730   0.73542   Biso      1.000     O          -0.572234           
         O86       1.0000    0.75180   0.52038   0.87154   Biso      1.000     O          -0.68024  
         O87       1.0000    0.47140   0.57916   0.91618   Biso      1.000     O          -0.69351  
         O88       1.0000    0.41760   0.57585   0.74863   Biso      1.000     O          -0.679396           
         O89       1.0000    0.48620   0.45312   0.81404   Biso      1.000     O          -0.68874  
         O90       1.0000    0.86780   0.64490   0.80000   Biso      1.000     O          -0.585908           
         O91       1.0000    0.65050   0.66631   0.81657   Biso      1.000     O          -0.683046           
         O92       1.0000    0.55440   0.47280   0.65762   Biso      1.000     O          -0.582634           
         O93       1.0000    0.69640   0.52957   0.73273   Biso      1.000     O          -0.685774           
         O94       1.0000    0.99850   0.58510   0.57193   Biso      1.000     O          -0.577309           
         O95       1.0000    0.79610   0.00890   0.51247   Biso      1.000     O          -0.579191           
         O96       1.0000    0.99850   0.08510   0.42807   Biso      1.000     O          -0.577309 