data_image0
_cell_length_a       21.6623
_cell_length_b       21.6623
_cell_length_c       21.6623
_cell_angle_alpha    90
_cell_angle_beta     90
_cell_angle_gamma    90

_symmetry_space_group_name_H-M    "P 1"
_symmetry_int_tables_number       1

loop_
  _symmetry_equiv_pos_as_xyz
  'x, y, z'

loop_
  _atom_site_label
  _atom_site_occupancy
  _atom_site_fract_x
  _atom_site_fract_y
  _atom_site_fract_z
  _atom_site_thermal_displace_type
  _atom_site_B_iso_or_equiv
  _atom_site_type_symbol
  _atom_site_charge
  C1       1.0000 0.58574  0.79686  0.20314  Biso   1.000  C  0.034844
  C2       1.0000 0.79686  0.41426  0.79686  Biso   1.000  C  0.035841
  C3       1.0000 0.41426  0.20314  0.20314  Biso   1.000  C  0.036085
  C4       1.0000 0.20314  0.58574  0.79686  Biso   1.000  C  0.037186
  C5       1.0000 0.58574  0.20314  0.79686  Biso   1.000  C  0.035807
  C6       1.0000 0.20314  0.41426  0.20314  Biso   1.000  C  0.034868
  C7       1.0000 0.41426  0.79686  0.79686  Biso   1.000  C  0.036324
  C8       1.0000 0.79686  0.58574  0.20314  Biso   1.000  C  0.036002
  C9       1.0000 0.79686  0.20314  0.58574  Biso   1.000  C  0.035890
  C10      1.0000 0.20314  0.79686  0.58574  Biso   1.000  C  0.036776
  C11      1.0000 0.20314  0.20314  0.41426  Biso   1.000  C  0.035965
  C12      1.0000 0.79686  0.79686  0.41426  Biso   1.000  C  0.035972
  C13      1.0000 0.08574  0.29686  0.70314  Biso   1.000  C  0.036069
  C14      1.0000 0.29686  0.91426  0.29686  Biso   1.000  C  0.037148
  C15      1.0000 0.91426  0.70314  0.70314  Biso   1.000  C  0.035505
  C16      1.0000 0.70314  0.08574  0.29686  Biso   1.000  C  0.035835
  C17      1.0000 0.08574  0.70314  0.29686  Biso   1.000  C  0.037206
  C18      1.0000 0.70314  0.91426  0.70314  Biso   1.000  C  0.036035
  C19      1.0000 0.91426  0.29686  0.29686  Biso   1.000  C  0.035801
  C20      1.0000 0.29686  0.08574  0.70314  Biso   1.000  C  0.034859
  C21      1.0000 0.29686  0.70314  0.08574  Biso   1.000  C  0.035229
  C22      1.0000 0.70314  0.29686  0.08574  Biso   1.000  C  0.036010
  C23      1.0000 0.70314  0.70314  0.91426  Biso   1.000  C  0.035908
  C24      1.0000 0.29686  0.29686  0.91426  Biso   1.000  C  0.035881
  C25      1.0000 0.55366  0.75204  0.17137  Biso   1.000  C  -0.165646
  C26      1.0000 0.75204  0.44634  0.82863  Biso   1.000  C  -0.164737
  C27      1.0000 0.44634  0.24796  0.17137  Biso   1.000  C  -0.164468
  C28      1.0000 0.24796  0.55366  0.82863  Biso   1.000  C  -0.164685
  C29      1.0000 0.55366  0.24796  0.82863  Biso   1.000  C  -0.164761
  C30      1.0000 0.24796  0.44634  0.17137  Biso   1.000  C  -0.165673
  C31      1.0000 0.44634  0.75204  0.82863  Biso   1.000  C  -0.164664
  C32      1.0000 0.75204  0.55366  0.17137  Biso   1.000  C  -0.164496
  C33      1.0000 0.17137  0.55366  0.75204  Biso   1.000  C  -0.164972
  C34      1.0000 0.55366  0.82863  0.24796  Biso   1.000  C  -0.166020
  C35      1.0000 0.82863  0.44634  0.75204  Biso   1.000  C  -0.164739
  C36      1.0000 0.44634  0.17137  0.24796  Biso   1.000  C  -0.164637
  C37      1.0000 0.17137  0.44634  0.24796  Biso   1.000  C  -0.166050
  C38      1.0000 0.44634  0.82863  0.75204  Biso   1.000  C  -0.164849
  C39      1.0000 0.82863  0.55366  0.24796  Biso   1.000  C  -0.164679
  C40      1.0000 0.55366  0.17137  0.75204  Biso   1.000  C  -0.164665
  C41      1.0000 0.75204  0.17137  0.55366  Biso   1.000  C  -0.164728
  C42      1.0000 0.17137  0.75204  0.55366  Biso   1.000  C  -0.165294
  C43      1.0000 0.17137  0.24796  0.44634  Biso   1.000  C  -0.164735
  C44      1.0000 0.82863  0.24796  0.55366  Biso   1.000  C  -0.164743
  C45      1.0000 0.82863  0.75204  0.44634  Biso   1.000  C  -0.164664
  C46      1.0000 0.75204  0.82863  0.44634  Biso   1.000  C  -0.164686
  C47      1.0000 0.24796  0.82863  0.55366  Biso   1.000  C  -0.165187
  C48      1.0000 0.24796  0.17137  0.44634  Biso   1.000  C  -0.164615
  C49      1.0000 0.05366  0.25204  0.67137  Biso   1.000  C  -0.164623
  C50      1.0000 0.25204  0.94634  0.32863  Biso   1.000  C  -0.164918
  C51      1.0000 0.94634  0.74796  0.67137  Biso   1.000  C  -0.165088
  C52      1.0000 0.74796  0.05366  0.32863  Biso   1.000  C  -0.164820
  C53      1.0000 0.05366  0.74796  0.32863  Biso   1.000  C  -0.164885
  C54      1.0000 0.74796  0.94634  0.67137  Biso   1.000  C  -0.164722
  C55      1.0000 0.94634  0.25204  0.32863  Biso   1.000  C  -0.164842
  C56      1.0000 0.25204  0.05366  0.67137  Biso   1.000  C  -0.165986
  C57      1.0000 0.67137  0.05366  0.25204  Biso   1.000  C  -0.164660
  C58      1.0000 0.05366  0.32863  0.74796  Biso   1.000  C  -0.164625
  C59      1.0000 0.32863  0.94634  0.25204  Biso   1.000  C  -0.164652
  C60      1.0000 0.94634  0.67137  0.74796  Biso   1.000  C  -0.165119
  C61      1.0000 0.67137  0.94634  0.74796  Biso   1.000  C  -0.164524
  C62      1.0000 0.94634  0.32863  0.25204  Biso   1.000  C  -0.164714
  C63      1.0000 0.32863  0.05366  0.74796  Biso   1.000  C  -0.165773
  C64      1.0000 0.05366  0.67137  0.25204  Biso   1.000  C  -0.164777
  C65      1.0000 0.25204  0.67137  0.05366  Biso   1.000  C  -0.166090
  C66      1.0000 0.67137  0.25204  0.05366  Biso   1.000  C  -0.164650
  C67      1.0000 0.67137  0.74796  0.94634  Biso   1.000  C  -0.164487
  C68      1.0000 0.32863  0.74796  0.05366  Biso   1.000  C  -0.165847
  C69      1.0000 0.32863  0.25204  0.94634  Biso   1.000  C  -0.164581
  C70      1.0000 0.25204  0.32863  0.94634  Biso   1.000  C  -0.164626
  C71      1.0000 0.74796  0.32863  0.05366  Biso   1.000  C  -0.164680
  C72      1.0000 0.74796  0.67137  0.94634  Biso   1.000  C  -0.164803
  C73      1.0000 0.45475  0.54530  0.24710  Biso   1.000  C  -0.018763
  C74      1.0000 0.54530  0.54525  0.75290  Biso   1.000  C  -0.018557
  C75      1.0000 0.54525  0.45470  0.24710  Biso   1.000  C  -0.019684
  C76      1.0000 0.45470  0.45475  0.75290  Biso   1.000  C  -0.018574
  C77      1.0000 0.24710  0.45475  0.54530  Biso   1.000  C  -0.018741
  C78      1.0000 0.45475  0.75290  0.45470  Biso   1.000  C  -0.016969
  C79      1.0000 0.75290  0.54525  0.54530  Biso   1.000  C  -0.018544
  C80      1.0000 0.54525  0.24710  0.45470  Biso   1.000  C  -0.018587
  C81      1.0000 0.24710  0.54525  0.45470  Biso   1.000  C  -0.016959
  C82      1.0000 0.54525  0.75290  0.54530  Biso   1.000  C  -0.018728
  C83      1.0000 0.75290  0.45475  0.45470  Biso   1.000  C  -0.018560
  C84      1.0000 0.45475  0.24710  0.54530  Biso   1.000  C  -0.018482
  C85      1.0000 0.95475  0.04530  0.74710  Biso   1.000  C  -0.018789
  C86      1.0000 0.04530  0.04525  0.25290  Biso   1.000  C  -0.018524
  C87      1.0000 0.04525  0.95470  0.74710  Biso   1.000  C  -0.016880
  C88      1.0000 0.95470  0.95475  0.25290  Biso   1.000  C  -0.018617
  C89      1.0000 0.74710  0.95475  0.04530  Biso   1.000  C  -0.018433
  C90      1.0000 0.95475  0.25290  0.95470  Biso   1.000  C  -0.018679
  C91      1.0000 0.25290  0.04525  0.04530  Biso   1.000  C  -0.019650
  C92      1.0000 0.04525  0.74710  0.95470  Biso   1.000  C  -0.016948
  C93      1.0000 0.74710  0.04525  0.95470  Biso   1.000  C  -0.018629
  C94      1.0000 0.04525  0.25290  0.04530  Biso   1.000  C  -0.018387
  C95      1.0000 0.25290  0.95475  0.95470  Biso   1.000  C  -0.018897
  C96      1.0000 0.95475  0.74710  0.04530  Biso   1.000  C  -0.018752
  C97      1.0000 0.49384  0.74031  0.18688  Biso   1.000  C  0.097815
  C98      1.0000 0.74031  0.50616  0.81312  Biso   1.000  C  0.096648
  C99      1.0000 0.50616  0.25969  0.18688  Biso   1.000  C  0.096704
  C100     1.0000 0.25969  0.49384  0.81312  Biso   1.000  C  0.096328
  C101     1.0000 0.49384  0.25969  0.81312  Biso   1.000  C  0.096650
  C102     1.0000 0.25969  0.50616  0.18688  Biso   1.000  C  0.097787
  C103     1.0000 0.50616  0.74031  0.81312  Biso   1.000  C  0.095915
  C104     1.0000 0.74031  0.49384  0.18688  Biso   1.000  C  0.096745
  C105     1.0000 0.18688  0.49384  0.74031  Biso   1.000  C  0.096130
  C106     1.0000 0.49384  0.81312  0.25969  Biso   1.000  C  0.096796
  C107     1.0000 0.81312  0.50616  0.74031  Biso   1.000  C  0.096668
  C108     1.0000 0.50616  0.18688  0.25969  Biso   1.000  C  0.096487
  C109     1.0000 0.18688  0.50616  0.25969  Biso   1.000  C  0.096740
  C110     1.0000 0.50616  0.81312  0.74031  Biso   1.000  C  0.095806
  C111     1.0000 0.81312  0.49384  0.25969  Biso   1.000  C  0.096503
  C112     1.0000 0.49384  0.18688  0.74031  Biso   1.000  C  0.096853
  C113     1.0000 0.74031  0.18688  0.49384  Biso   1.000  C  0.096631
  C114     1.0000 0.18688  0.74031  0.49384  Biso   1.000  C  0.096110
  C115     1.0000 0.18688  0.25969  0.50616  Biso   1.000  C  0.096510
  C116     1.0000 0.81312  0.25969  0.49384  Biso   1.000  C  0.096623
  C117     1.0000 0.81312  0.74031  0.50616  Biso   1.000  C  0.096630
  C118     1.0000 0.74031  0.81312  0.50616  Biso   1.000  C  0.096576
  C119     1.0000 0.25969  0.81312  0.49384  Biso   1.000  C  0.096204
  C120     1.0000 0.25969  0.18688  0.50616  Biso   1.000  C  0.096776
  C121     1.0000 0.99384  0.24031  0.68688  Biso   1.000  C  0.096541
  C122     1.0000 0.24031  0.00616  0.31312  Biso   1.000  C  0.096124
  C123     1.0000 0.00616  0.75969  0.68688  Biso   1.000  C  0.096532
  C124     1.0000 0.75969  0.99384  0.31312  Biso   1.000  C  0.096550
  C125     1.0000 0.99384  0.75969  0.31312  Biso   1.000  C  0.096177
  C126     1.0000 0.75969  0.00616  0.68688  Biso   1.000  C  0.096533
  C127     1.0000 0.00616  0.24031  0.31312  Biso   1.000  C  0.096582
  C128     1.0000 0.24031  0.99384  0.68688  Biso   1.000  C  0.096870
  C129     1.0000 0.68688  0.99384  0.24031  Biso   1.000  C  0.096833
  C130     1.0000 0.99384  0.31312  0.75969  Biso   1.000  C  0.096554
  C131     1.0000 0.31312  0.00616  0.24031  Biso   1.000  C  0.096453
  C132     1.0000 0.00616  0.68688  0.75969  Biso   1.000  C  0.096492
  C133     1.0000 0.68688  0.00616  0.75969  Biso   1.000  C  0.096615
  C134     1.0000 0.00616  0.31312  0.24031  Biso   1.000  C  0.096820
  C135     1.0000 0.31312  0.99384  0.75969  Biso   1.000  C  0.097591
  C136     1.0000 0.99384  0.68688  0.24031  Biso   1.000  C  0.096264
  C137     1.0000 0.24031  0.68688  0.99384  Biso   1.000  C  0.096088
  C138     1.0000 0.68688  0.24031  0.99384  Biso   1.000  C  0.096612
  C139     1.0000 0.68688  0.75969  0.00616  Biso   1.000  C  0.096877
  C140     1.0000 0.31312  0.75969  0.99384  Biso   1.000  C  0.096866
  C141     1.0000 0.31312  0.24031  0.00616  Biso   1.000  C  0.096753
  C142     1.0000 0.24031  0.31312  0.00616  Biso   1.000  C  0.096774
  C143     1.0000 0.75969  0.31312  0.99384  Biso   1.000  C  0.096582
  C144     1.0000 0.75969  0.68688  0.00616  Biso   1.000  C  0.096545
  C145     1.0000 0.43851  0.48400  0.24340  Biso   1.000  C  -0.113812
  C146     1.0000 0.48400  0.56149  0.75660  Biso   1.000  C  -0.113483
  C147     1.0000 0.56149  0.51600  0.24340  Biso   1.000  C  -0.114765
  C148     1.0000 0.51600  0.43851  0.75660  Biso   1.000  C  -0.113960
  C149     1.0000 0.43851  0.51600  0.75660  Biso   1.000  C  -0.114026
  C150     1.0000 0.51600  0.56149  0.24340  Biso   1.000  C  -0.114298
  C151     1.0000 0.56149  0.48400  0.75660  Biso   1.000  C  -0.114455
  C152     1.0000 0.48400  0.43851  0.24340  Biso   1.000  C  -0.115227
  C153     1.0000 0.24340  0.43851  0.48400  Biso   1.000  C  -0.113915
  C154     1.0000 0.43851  0.75660  0.51600  Biso   1.000  C  -0.114027
  C155     1.0000 0.75660  0.56149  0.48400  Biso   1.000  C  -0.113714
  C156     1.0000 0.56149  0.24340  0.51600  Biso   1.000  C  -0.113929
  C157     1.0000 0.24340  0.56149  0.51600  Biso   1.000  C  -0.114073
  C158     1.0000 0.56149  0.75660  0.48400  Biso   1.000  C  -0.113952
  C159     1.0000 0.75660  0.43851  0.51600  Biso   1.000  C  -0.113913
  C160     1.0000 0.43851  0.24340  0.48400  Biso   1.000  C  -0.113683
  C161     1.0000 0.48400  0.24340  0.43851  Biso   1.000  C  -0.114169
  C162     1.0000 0.24340  0.48400  0.43851  Biso   1.000  C  -0.114009
  C163     1.0000 0.24340  0.51600  0.56149  Biso   1.000  C  -0.114270
  C164     1.0000 0.75660  0.51600  0.43851  Biso   1.000  C  -0.114168
  C165     1.0000 0.75660  0.48400  0.56149  Biso   1.000  C  -0.114367
  C166     1.0000 0.48400  0.75660  0.56149  Biso   1.000  C  -0.114162
  C167     1.0000 0.51600  0.75660  0.43851  Biso   1.000  C  -0.114035
  C168     1.0000 0.51600  0.24340  0.56149  Biso   1.000  C  -0.114337
  C169     1.0000 0.93851  0.98400  0.74340  Biso   1.000  C  -0.113960
  C170     1.0000 0.98400  0.06149  0.25660  Biso   1.000  C  -0.113980
  C171     1.0000 0.06149  0.01600  0.74340  Biso   1.000  C  -0.113398
  C172     1.0000 0.01600  0.93851  0.25660  Biso   1.000  C  -0.113595
  C173     1.0000 0.93851  0.01600  0.25660  Biso   1.000  C  -0.114480
  C174     1.0000 0.01600  0.06149  0.74340  Biso   1.000  C  -0.114336
  C175     1.0000 0.06149  0.98400  0.25660  Biso   1.000  C  -0.114000
  C176     1.0000 0.98400  0.93851  0.74340  Biso   1.000  C  -0.114674
  C177     1.0000 0.74340  0.93851  0.98400  Biso   1.000  C  -0.113678
  C178     1.0000 0.93851  0.25660  0.01600  Biso   1.000  C  -0.113926
  C179     1.0000 0.25660  0.06149  0.98400  Biso   1.000  C  -0.114861
  C180     1.0000 0.06149  0.74340  0.01600  Biso   1.000  C  -0.113179
  C181     1.0000 0.74340  0.06149  0.01600  Biso   1.000  C  -0.113864
  C182     1.0000 0.06149  0.25660  0.98400  Biso   1.000  C  -0.113605
  C183     1.0000 0.25660  0.93851  0.01600  Biso   1.000  C  -0.113627
  C184     1.0000 0.93851  0.74340  0.98400  Biso   1.000  C  -0.114052
  C185     1.0000 0.98400  0.74340  0.93851  Biso   1.000  C  -0.114831
  C186     1.0000 0.74340  0.98400  0.93851  Biso   1.000  C  -0.114256
  C187     1.0000 0.74340  0.01600  0.06149  Biso   1.000  C  -0.114268
  C188     1.0000 0.25660  0.01600  0.93851  Biso   1.000  C  -0.114477
  C189     1.0000 0.25660  0.98400  0.06149  Biso   1.000  C  -0.115038
  C190     1.0000 0.98400  0.25660  0.06149  Biso   1.000  C  -0.114309
  C191     1.0000 0.01600  0.25660  0.93851  Biso   1.000  C  -0.114265
  C192     1.0000 0.01600  0.74340  0.06149  Biso   1.000  C  -0.114121
  C193     1.0000 0.65392  0.80811  0.19189  Biso   1.000  C  0.603796
  C194     1.0000 0.80811  0.34608  0.80811  Biso   1.000  C  0.603428
  C195     1.0000 0.34608  0.19189  0.19189  Biso   1.000  C  0.603423
  C196     1.0000 0.19189  0.65392  0.80811  Biso   1.000  C  0.602679
  C197     1.0000 0.65392  0.19189  0.80811  Biso   1.000  C  0.603463
  C198     1.0000 0.19189  0.34608  0.19189  Biso   1.000  C  0.603760
  C199     1.0000 0.34608  0.80811  0.80811  Biso   1.000  C  0.603518
  C200     1.0000 0.80811  0.65392  0.19189  Biso   1.000  C  0.603387
  C201     1.0000 0.80811  0.19189  0.65392  Biso   1.000  C  0.603408
  C202     1.0000 0.19189  0.80811  0.65392  Biso   1.000  C  0.602850
  C203     1.0000 0.19189  0.19189  0.34608  Biso   1.000  C  0.603368
  C204     1.0000 0.80811  0.80811  0.34608  Biso   1.000  C  0.603374
  C205     1.0000 0.15392  0.30811  0.69189  Biso   1.000  C  0.603347
  C206     1.0000 0.30811  0.84608  0.30811  Biso   1.000  C  0.602742
  C207     1.0000 0.84608  0.69189  0.69189  Biso   1.000  C  0.603520
  C208     1.0000 0.69189  0.15392  0.30811  Biso   1.000  C  0.603419
  C209     1.0000 0.15392  0.69189  0.30811  Biso   1.000  C  0.602703
  C210     1.0000 0.69189  0.84608  0.69189  Biso   1.000  C  0.603332
  C211     1.0000 0.84608  0.30811  0.30811  Biso   1.000  C  0.603427
  C212     1.0000 0.30811  0.15392  0.69189  Biso   1.000  C  0.603773
  C213     1.0000 0.30811  0.69189  0.15392  Biso   1.000  C  0.603940
  C214     1.0000 0.69189  0.30811  0.15392  Biso   1.000  C  0.603434
  C215     1.0000 0.69189  0.69189  0.84608  Biso   1.000  C  0.603391
  C216     1.0000 0.30811  0.30811  0.84608  Biso   1.000  C  0.603447
  C217     1.0000 0.40521  0.59480  0.25470  Biso   1.000  C  0.621740
  C218     1.0000 0.59480  0.59479  0.74530  Biso   1.000  C  0.621405
  C219     1.0000 0.59479  0.40520  0.25470  Biso   1.000  C  0.621593
  C220     1.0000 0.40520  0.40521  0.74530  Biso   1.000  C  0.621433
  C221     1.0000 0.25470  0.40521  0.59480  Biso   1.000  C  0.621410
  C222     1.0000 0.40521  0.74530  0.40520  Biso   1.000  C  0.620743
  C223     1.0000 0.74530  0.59479  0.59480  Biso   1.000  C  0.621456
  C224     1.0000 0.59479  0.25470  0.40520  Biso   1.000  C  0.621453
  C225     1.0000 0.25470  0.59479  0.40520  Biso   1.000  C  0.620725
  C226     1.0000 0.59479  0.74530  0.59480  Biso   1.000  C  0.621397
  C227     1.0000 0.74530  0.40521  0.40520  Biso   1.000  C  0.621448
  C228     1.0000 0.40521  0.25470  0.59480  Biso   1.000  C  0.621500
  C229     1.0000 0.90521  0.09480  0.75470  Biso   1.000  C  0.621472
  C230     1.0000 0.09480  0.09479  0.24530  Biso   1.000  C  0.621395
  C231     1.0000 0.09479  0.90520  0.75470  Biso   1.000  C  0.620773
  C232     1.0000 0.90520  0.90521  0.24530  Biso   1.000  C  0.621403
  C233     1.0000 0.75470  0.90521  0.09480  Biso   1.000  C  0.621512
  C234     1.0000 0.90521  0.24530  0.90520  Biso   1.000  C  0.621464
  C235     1.0000 0.24530  0.09479  0.09480  Biso   1.000  C  0.621552
  C236     1.0000 0.09479  0.75470  0.90520  Biso   1.000  C  0.620706
  C237     1.0000 0.75470  0.09479  0.90520  Biso   1.000  C  0.621476
  C238     1.0000 0.09479  0.24530  0.09480  Biso   1.000  C  0.621489
  C239     1.0000 0.24530  0.90521  0.90520  Biso   1.000  C  0.621632
  C240     1.0000 0.90521  0.75470  0.09480  Biso   1.000  C  0.621426
  H1       1.0000 0.57260  0.73010  0.13970  Biso   1.000  H  0.134228
  H2       1.0000 0.73010  0.42740  0.86030  Biso   1.000  H  0.134885
  H3       1.0000 0.42740  0.26990  0.13970  Biso   1.000  H  0.135001
  H4       1.0000 0.26990  0.57260  0.86030  Biso   1.000  H  0.135272
  H5       1.0000 0.57260  0.26990  0.86030  Biso   1.000  H  0.134861
  H6       1.0000 0.26990  0.42740  0.13970  Biso   1.000  H  0.134237
  H7       1.0000 0.42740  0.73010  0.86030  Biso   1.000  H  0.135034
  H8       1.0000 0.73010  0.57260  0.13970  Biso   1.000  H  0.134994
  H9       1.0000 0.13970  0.57260  0.73010  Biso   1.000  H  0.134892
  H10      1.0000 0.57260  0.86030  0.26990  Biso   1.000  H  0.134099
  H11      1.0000 0.86030  0.42740  0.73010  Biso   1.000  H  0.134873
  H12      1.0000 0.42740  0.13970  0.26990  Biso   1.000  H  0.134961
  H13      1.0000 0.13970  0.42740  0.26990  Biso   1.000  H  0.134100
  H14      1.0000 0.42740  0.86030  0.73010  Biso   1.000  H  0.134881
  H15      1.0000 0.86030  0.57260  0.26990  Biso   1.000  H  0.134942
  H16      1.0000 0.57260  0.13970  0.73010  Biso   1.000  H  0.134892
  H17      1.0000 0.73010  0.13970  0.57260  Biso   1.000  H  0.134895
  H18      1.0000 0.13970  0.73010  0.57260  Biso   1.000  H  0.134728
  H19      1.0000 0.13970  0.26990  0.42740  Biso   1.000  H  0.134892
  H20      1.0000 0.86030  0.26990  0.57260  Biso   1.000  H  0.134881
  H21      1.0000 0.86030  0.73010  0.42740  Biso   1.000  H  0.134944
  H22      1.0000 0.73010  0.86030  0.42740  Biso   1.000  H  0.134912
  H23      1.0000 0.26990  0.86030  0.57260  Biso   1.000  H  0.134950
  H24      1.0000 0.26990  0.13970  0.42740  Biso   1.000  H  0.134971
  H25      1.0000 0.07260  0.23010  0.63970  Biso   1.000  H  0.134955
  H26      1.0000 0.23010  0.92740  0.36030  Biso   1.000  H  0.134932
  H27      1.0000 0.92740  0.76990  0.63970  Biso   1.000  H  0.134693
  H28      1.0000 0.76990  0.07260  0.36030  Biso   1.000  H  0.134836
  H29      1.0000 0.07260  0.76990  0.36030  Biso   1.000  H  0.134953
  H30      1.0000 0.76990  0.92740  0.63970  Biso   1.000  H  0.134906
  H31      1.0000 0.92740  0.23010  0.36030  Biso   1.000  H  0.134825
  H32      1.0000 0.23010  0.07260  0.63970  Biso   1.000  H  0.134126
  H33      1.0000 0.63970  0.07260  0.23010  Biso   1.000  H  0.134925
  H34      1.0000 0.07260  0.36030  0.76990  Biso   1.000  H  0.134981
  H35      1.0000 0.36030  0.92740  0.23010  Biso   1.000  H  0.135200
  H36      1.0000 0.92740  0.63970  0.76990  Biso   1.000  H  0.134677
  H37      1.0000 0.63970  0.92740  0.76990  Biso   1.000  H  0.135069
  H38      1.0000 0.92740  0.36030  0.23010  Biso   1.000  H  0.134890
  H39      1.0000 0.36030  0.07260  0.76990  Biso   1.000  H  0.134183
  H40      1.0000 0.07260  0.63970  0.23010  Biso   1.000  H  0.135166
  H41      1.0000 0.23010  0.63970  0.07260  Biso   1.000  H  0.134123
  H42      1.0000 0.63970  0.23010  0.07260  Biso   1.000  H  0.134938
  H43      1.0000 0.63970  0.76990  0.92740  Biso   1.000  H  0.135050
  H44      1.0000 0.36030  0.76990  0.07260  Biso   1.000  H  0.134194
  H45      1.0000 0.36030  0.23010  0.92740  Biso   1.000  H  0.134925
  H46      1.0000 0.23010  0.36030  0.92740  Biso   1.000  H  0.134939
  H47      1.0000 0.76990  0.36030  0.07260  Biso   1.000  H  0.134914
  H48      1.0000 0.76990  0.63970  0.92740  Biso   1.000  H  0.134842
  H49      1.0000 0.47260  0.71100  0.16390  Biso   1.000  H  0.091323
  H50      1.0000 0.71100  0.52740  0.83610  Biso   1.000  H  0.091797
  H51      1.0000 0.52740  0.28900  0.16390  Biso   1.000  H  0.091817
  H52      1.0000 0.28900  0.47260  0.83610  Biso   1.000  H  0.091701
  H53      1.0000 0.47260  0.28900  0.83610  Biso   1.000  H  0.091786
  H54      1.0000 0.28900  0.52740  0.16390  Biso   1.000  H  0.091314
  H55      1.0000 0.52740  0.71100  0.83610  Biso   1.000  H  0.091553
  H56      1.0000 0.71100  0.47260  0.16390  Biso   1.000  H  0.091826
  H57      1.0000 0.16390  0.47260  0.71100  Biso   1.000  H  0.091612
  H58      1.0000 0.47260  0.83610  0.28900  Biso   1.000  H  0.090803
  H59      1.0000 0.83610  0.52740  0.71100  Biso   1.000  H  0.091796
  H60      1.0000 0.52740  0.16390  0.28900  Biso   1.000  H  0.091742
  H61      1.0000 0.16390  0.52740  0.28900  Biso   1.000  H  0.090784
  H62      1.0000 0.52740  0.83610  0.71100  Biso   1.000  H  0.091487
  H63      1.0000 0.83610  0.47260  0.28900  Biso   1.000  H  0.091745
  H64      1.0000 0.47260  0.16390  0.71100  Biso   1.000  H  0.091909
  H65      1.0000 0.71100  0.16390  0.47260  Biso   1.000  H  0.091768
  H66      1.0000 0.16390  0.71100  0.47260  Biso   1.000  H  0.091602
  H67      1.0000 0.16390  0.28900  0.52740  Biso   1.000  H  0.091717
  H68      1.0000 0.83610  0.28900  0.47260  Biso   1.000  H  0.091761
  H69      1.0000 0.83610  0.71100  0.52740  Biso   1.000  H  0.091784
  H70      1.0000 0.71100  0.83610  0.52740  Biso   1.000  H  0.091746
  H71      1.0000 0.28900  0.83610  0.47260  Biso   1.000  H  0.091641
  H72      1.0000 0.28900  0.16390  0.52740  Biso   1.000  H  0.091890
  H73      1.0000 0.97260  0.21100  0.66390  Biso   1.000  H  0.091747
  H74      1.0000 0.21100  0.02740  0.33610  Biso   1.000  H  0.091619
  H75      1.0000 0.02740  0.78900  0.66390  Biso   1.000  H  0.091740
  H76      1.0000 0.78900  0.97260  0.33610  Biso   1.000  H  0.091738
  H77      1.0000 0.97260  0.78900  0.33610  Biso   1.000  H  0.091626
  H78      1.0000 0.78900  0.02740  0.66390  Biso   1.000  H  0.091742
  H79      1.0000 0.02740  0.21100  0.33610  Biso   1.000  H  0.091735
  H80      1.0000 0.21100  0.97260  0.66390  Biso   1.000  H  0.090823
  H81      1.0000 0.66390  0.97260  0.21100  Biso   1.000  H  0.091926
  H82      1.0000 0.97260  0.33610  0.78900  Biso   1.000  H  0.091763
  H83      1.0000 0.33610  0.02740  0.21100  Biso   1.000  H  0.091719
  H84      1.0000 0.02740  0.66390  0.78900  Biso   1.000  H  0.091715
  H85      1.0000 0.66390  0.02740  0.78900  Biso   1.000  H  0.091815
  H86      1.0000 0.02740  0.33610  0.21100  Biso   1.000  H  0.091897
  H87      1.0000 0.33610  0.97260  0.78900  Biso   1.000  H  0.091170
  H88      1.0000 0.97260  0.66390  0.21100  Biso   1.000  H  0.091640
  H89      1.0000 0.21100  0.66390  0.97260  Biso   1.000  H  0.090542
  H90      1.0000 0.66390  0.21100  0.97260  Biso   1.000  H  0.091788
  H91      1.0000 0.66390  0.78900  0.02740  Biso   1.000  H  0.091945
  H92      1.0000 0.33610  0.78900  0.97260  Biso   1.000  H  0.090914
  H93      1.0000 0.33610  0.21100  0.02740  Biso   1.000  H  0.091813
  H94      1.0000 0.21100  0.33610  0.02740  Biso   1.000  H  0.091884
  H95      1.0000 0.78900  0.33610  0.97260  Biso   1.000  H  0.091760
  H96      1.0000 0.78900  0.66390  0.02740  Biso   1.000  H  0.091732
  H97      1.0000 0.39710  0.47300  0.24090  Biso   1.000  H  0.114919
  H98      1.0000 0.47300  0.60290  0.75910  Biso   1.000  H  0.115242
  H99      1.0000 0.60290  0.52700  0.24090  Biso   1.000  H  0.114534
  H100     1.0000 0.52700  0.39710  0.75910  Biso   1.000  H  0.114948
  H101     1.0000 0.39710  0.52700  0.75910  Biso   1.000  H  0.115237
  H102     1.0000 0.52700  0.60290  0.24090  Biso   1.000  H  0.114975
  H103     1.0000 0.60290  0.47300  0.75910  Biso   1.000  H  0.114998
  H104     1.0000 0.47300  0.39710  0.24090  Biso   1.000  H  0.114608
  H105     1.0000 0.24090  0.39710  0.47300  Biso   1.000  H  0.115040
  H106     1.0000 0.39710  0.75910  0.52700  Biso   1.000  H  0.115279
  H107     1.0000 0.75910  0.60290  0.47300  Biso   1.000  H  0.115049
  H108     1.0000 0.60290  0.24090  0.52700  Biso   1.000  H  0.114952
  H109     1.0000 0.24090  0.60290  0.52700  Biso   1.000  H  0.115270
  H110     1.0000 0.60290  0.75910  0.47300  Biso   1.000  H  0.115015
  H111     1.0000 0.75910  0.39710  0.52700  Biso   1.000  H  0.114963
  H112     1.0000 0.39710  0.24090  0.47300  Biso   1.000  H  0.115057
  H113     1.0000 0.47300  0.24090  0.39710  Biso   1.000  H  0.115129
  H114     1.0000 0.24090  0.47300  0.39710  Biso   1.000  H  0.115504
  H115     1.0000 0.24090  0.52700  0.60290  Biso   1.000  H  0.115172
  H116     1.0000 0.75910  0.52700  0.39710  Biso   1.000  H  0.115129
  H117     1.0000 0.75910  0.47300  0.60290  Biso   1.000  H  0.115036
  H118     1.0000 0.47300  0.75910  0.60290  Biso   1.000  H  0.115249
  H119     1.0000 0.52700  0.75910  0.39710  Biso   1.000  H  0.115488
  H120     1.0000 0.52700  0.24090  0.60290  Biso   1.000  H  0.115042
  H121     1.0000 0.89710  0.97300  0.74090  Biso   1.000  H  0.114959
  H122     1.0000 0.97300  0.10290  0.25910  Biso   1.000  H  0.114958
  H123     1.0000 0.10290  0.02700  0.74090  Biso   1.000  H  0.115475
  H124     1.0000 0.02700  0.89710  0.25910  Biso   1.000  H  0.115174
  H125     1.0000 0.89710  0.02700  0.25910  Biso   1.000  H  0.115009
  H126     1.0000 0.02700  0.10290  0.74090  Biso   1.000  H  0.115103
  H127     1.0000 0.10290  0.97300  0.25910  Biso   1.000  H  0.115278
  H128     1.0000 0.97300  0.89710  0.74090  Biso   1.000  H  0.115208
  H129     1.0000 0.74090  0.89710  0.97300  Biso   1.000  H  0.115043
  H130     1.0000 0.89710  0.25910  0.02700  Biso   1.000  H  0.114957
  H131     1.0000 0.25910  0.10290  0.97300  Biso   1.000  H  0.114517
  H132     1.0000 0.10290  0.74090  0.02700  Biso   1.000  H  0.115676
  H133     1.0000 0.74090  0.10290  0.02700  Biso   1.000  H  0.114970
  H134     1.0000 0.10290  0.25910  0.97300  Biso   1.000  H  0.115098
  H135     1.0000 0.25910  0.89710  0.02700  Biso   1.000  H  0.115110
  H136     1.0000 0.89710  0.74090  0.97300  Biso   1.000  H  0.114939
  H137     1.0000 0.97300  0.74090  0.89710  Biso   1.000  H  0.115152
  H138     1.0000 0.74090  0.97300  0.89710  Biso   1.000  H  0.115066
  H139     1.0000 0.74090  0.02700  0.10290  Biso   1.000  H  0.115059
  H140     1.0000 0.25910  0.02700  0.89710  Biso   1.000  H  0.114915
  H141     1.0000 0.25910  0.97300  0.10290  Biso   1.000  H  0.114755
  H142     1.0000 0.97300  0.25910  0.10290  Biso   1.000  H  0.115059
  H143     1.0000 0.02700  0.25910  0.89710  Biso   1.000  H  0.115075
  H144     1.0000 0.02700  0.74090  0.10290  Biso   1.000  H  0.115261
  N1       1.0000 0.46417  0.76774  0.23226  Biso   1.000  N  -0.171784
  N2       1.0000 0.76774  0.53583  0.76774  Biso   1.000  N  -0.166470
  N3       1.0000 0.53583  0.23226  0.23226  Biso   1.000  N  -0.166448
  N4       1.0000 0.23226  0.46417  0.76774  Biso   1.000  N  -0.166756
  N5       1.0000 0.46417  0.23226  0.76774  Biso   1.000  N  -0.166277
  N6       1.0000 0.23226  0.53583  0.23226  Biso   1.000  N  -0.171832
  N7       1.0000 0.53583  0.76774  0.76774  Biso   1.000  N  -0.166889
  N8       1.0000 0.76774  0.46417  0.23226  Biso   1.000  N  -0.166427
  N9       1.0000 0.76774  0.23226  0.46417  Biso   1.000  N  -0.166509
  N10      1.0000 0.23226  0.76774  0.46417  Biso   1.000  N  -0.165851
  N11      1.0000 0.23226  0.23226  0.53583  Biso   1.000  N  -0.166364
  N12      1.0000 0.76774  0.76774  0.53583  Biso   1.000  N  -0.166497
  N13      1.0000 0.96417  0.26774  0.73226  Biso   1.000  N  -0.166504
  N14      1.0000 0.26774  0.03583  0.26774  Biso   1.000  N  -0.166688
  N15      1.0000 0.03583  0.73226  0.73226  Biso   1.000  N  -0.165671
  N16      1.0000 0.73226  0.96417  0.26774  Biso   1.000  N  -0.166342
  N17      1.0000 0.96417  0.73226  0.26774  Biso   1.000  N  -0.166751
  N18      1.0000 0.73226  0.03583  0.73226  Biso   1.000  N  -0.166489
  N19      1.0000 0.03583  0.26774  0.26774  Biso   1.000  N  -0.166393
  N20      1.0000 0.26774  0.96417  0.73226  Biso   1.000  N  -0.172046
  N21      1.0000 0.26774  0.73226  0.96417  Biso   1.000  N  -0.172389
  N22      1.0000 0.73226  0.26774  0.96417  Biso   1.000  N  -0.166469
  N23      1.0000 0.73226  0.73226  0.03583  Biso   1.000  N  -0.166305
  N24      1.0000 0.26774  0.26774  0.03583  Biso   1.000  N  -0.166244
  Ni1      1.0000 0.38120  0.73196  0.26804  Biso   1.000  Ni  0.971620
  Ni2      1.0000 0.73196  0.61880  0.73196  Biso   1.000  Ni  0.968375
  Ni3      1.0000 0.61880  0.26804  0.26804  Biso   1.000  Ni  0.968319
  Ni4      1.0000 0.26804  0.38120  0.73196  Biso   1.000  Ni  0.968446
  Ni5      1.0000 0.38120  0.26804  0.73196  Biso   1.000  Ni  0.968387
  Ni6      1.0000 0.26804  0.61880  0.26804  Biso   1.000  Ni  0.971671
  Ni7      1.0000 0.61880  0.73196  0.73196  Biso   1.000  Ni  0.968582
  Ni8      1.0000 0.73196  0.38120  0.26804  Biso   1.000  Ni  0.968358
  Ni9      1.0000 0.73196  0.26804  0.38120  Biso   1.000  Ni  0.968442
  Ni10     1.0000 0.26804  0.73196  0.38120  Biso   1.000  Ni  0.960910
  Ni11     1.0000 0.26804  0.26804  0.61880  Biso   1.000  Ni  0.968444
  Ni12     1.0000 0.73196  0.73196  0.61880  Biso   1.000  Ni  0.968472
  Ni13     1.0000 0.88120  0.23196  0.76804  Biso   1.000  Ni  0.968356
  Ni14     1.0000 0.23196  0.11880  0.23196  Biso   1.000  Ni  0.968400
  Ni15     1.0000 0.11880  0.76804  0.76804  Biso   1.000  Ni  0.960744
  Ni16     1.0000 0.76804  0.88120  0.23196  Biso   1.000  Ni  0.968349
  Ni17     1.0000 0.88120  0.76804  0.23196  Biso   1.000  Ni  0.968488
  Ni18     1.0000 0.76804  0.11880  0.76804  Biso   1.000  Ni  0.968403
  Ni19     1.0000 0.11880  0.23196  0.23196  Biso   1.000  Ni  0.968395
  Ni20     1.0000 0.23196  0.88120  0.76804  Biso   1.000  Ni  0.971772
  Ni21     1.0000 0.23196  0.76804  0.88120  Biso   1.000  Ni  0.971887
  Ni22     1.0000 0.76804  0.23196  0.88120  Biso   1.000  Ni  0.968449
  Ni23     1.0000 0.76804  0.76804  0.11880  Biso   1.000  Ni  0.968439
  Ni24     1.0000 0.23196  0.23196  0.11880  Biso   1.000  Ni  0.968396
  O1       1.0000 0.67879  0.77433  0.15252  Biso   1.000  O  -0.529804
  O2       1.0000 0.77433  0.32121  0.84748  Biso   1.000  O  -0.530053
  O3       1.0000 0.32121  0.22567  0.15252  Biso   1.000  O  -0.529807
  O4       1.0000 0.22567  0.67879  0.84748  Biso   1.000  O  -0.531370
  O5       1.0000 0.67879  0.22567  0.84748  Biso   1.000  O  -0.530055
  O6       1.0000 0.22567  0.32121  0.15252  Biso   1.000  O  -0.529753
  O7       1.0000 0.32121  0.77433  0.84748  Biso   1.000  O  -0.534525
  O8       1.0000 0.77433  0.67879  0.15252  Biso   1.000  O  -0.529821
  O9       1.0000 0.15252  0.67879  0.77433  Biso   1.000  O  -0.533187
  O10      1.0000 0.67879  0.84748  0.22567  Biso   1.000  O  -0.529951
  O11      1.0000 0.84748  0.32121  0.77433  Biso   1.000  O  -0.530052
  O12      1.0000 0.32121  0.15252  0.22567  Biso   1.000  O  -0.529857
  O13      1.0000 0.15252  0.32121  0.22567  Biso   1.000  O  -0.529980
  O14      1.0000 0.32121  0.84748  0.77433  Biso   1.000  O  -0.534948
  O15      1.0000 0.84748  0.67879  0.22567  Biso   1.000  O  -0.529890
  O16      1.0000 0.67879  0.15252  0.77433  Biso   1.000  O  -0.530032
  O17      1.0000 0.77433  0.15252  0.67879  Biso   1.000  O  -0.530040
  O18      1.0000 0.15252  0.77433  0.67879  Biso   1.000  O  -0.533151
  O19      1.0000 0.15252  0.22567  0.32121  Biso   1.000  O  -0.529941
  O20      1.0000 0.84748  0.22567  0.67879  Biso   1.000  O  -0.530058
  O21      1.0000 0.84748  0.77433  0.32121  Biso   1.000  O  -0.529866
  O22      1.0000 0.77433  0.84748  0.32121  Biso   1.000  O  -0.529920
  O23      1.0000 0.22567  0.84748  0.67879  Biso   1.000  O  -0.531741
  O24      1.0000 0.22567  0.15252  0.32121  Biso   1.000  O  -0.529795
  O25      1.0000 0.17879  0.27433  0.65252  Biso   1.000  O  -0.529904
  O26      1.0000 0.27433  0.82121  0.34748  Biso   1.000  O  -0.532997
  O27      1.0000 0.82121  0.72567  0.65252  Biso   1.000  O  -0.530037
  O28      1.0000 0.72567  0.17879  0.34748  Biso   1.000  O  -0.530114
  O29      1.0000 0.17879  0.72567  0.34748  Biso   1.000  O  -0.532984
  O30      1.0000 0.72567  0.82121  0.65252  Biso   1.000  O  -0.530068
  O31      1.0000 0.82121  0.27433  0.34748  Biso   1.000  O  -0.530112
  O32      1.0000 0.27433  0.17879  0.65252  Biso   1.000  O  -0.529928
  O33      1.0000 0.65252  0.17879  0.27433  Biso   1.000  O  -0.529959
  O34      1.0000 0.17879  0.34748  0.72567  Biso   1.000  O  -0.529861
  O35      1.0000 0.34748  0.82121  0.27433  Biso   1.000  O  -0.531448
  O36      1.0000 0.82121  0.65252  0.72567  Biso   1.000  O  -0.530060
  O37      1.0000 0.65252  0.82121  0.72567  Biso   1.000  O  -0.529696
  O38      1.0000 0.82121  0.34748  0.27433  Biso   1.000  O  -0.529992
  O39      1.0000 0.34748  0.17879  0.72567  Biso   1.000  O  -0.529858
  O40      1.0000 0.17879  0.65252  0.27433  Biso   1.000  O  -0.531528
  O41      1.0000 0.27433  0.65252  0.17879  Biso   1.000  O  -0.534854
  O42      1.0000 0.65252  0.27433  0.17879  Biso   1.000  O  -0.530017
  O43      1.0000 0.65252  0.72567  0.82121  Biso   1.000  O  -0.529668
  O44      1.0000 0.34748  0.72567  0.17879  Biso   1.000  O  -0.534760
  O45      1.0000 0.34748  0.27433  0.82121  Biso   1.000  O  -0.529845
  O46      1.0000 0.27433  0.34748  0.82121  Biso   1.000  O  -0.529848
  O47      1.0000 0.72567  0.34748  0.17879  Biso   1.000  O  -0.530043
  O48      1.0000 0.72567  0.65252  0.82121  Biso   1.000  O  -0.530082
  O49      1.0000 0.42338  0.64816  0.25888  Biso   1.000  O  -0.539499
  O50      1.0000 0.64816  0.57662  0.74112  Biso   1.000  O  -0.533904
  O51      1.0000 0.57662  0.35184  0.25888  Biso   1.000  O  -0.533520
  O52      1.0000 0.35184  0.42338  0.74112  Biso   1.000  O  -0.533559
  O53      1.0000 0.42338  0.35184  0.74112  Biso   1.000  O  -0.534031
  O54      1.0000 0.35184  0.57662  0.25888  Biso   1.000  O  -0.539698
  O55      1.0000 0.57662  0.64816  0.74112  Biso   1.000  O  -0.533544
  O56      1.0000 0.64816  0.42338  0.25888  Biso   1.000  O  -0.533741
  O57      1.0000 0.25888  0.42338  0.64816  Biso   1.000  O  -0.533557
  O58      1.0000 0.42338  0.74112  0.35184  Biso   1.000  O  -0.535680
  O59      1.0000 0.74112  0.57662  0.64816  Biso   1.000  O  -0.533915
  O60      1.0000 0.57662  0.25888  0.35184  Biso   1.000  O  -0.533631
  O61      1.0000 0.25888  0.57662  0.35184  Biso   1.000  O  -0.535673
  O62      1.0000 0.57662  0.74112  0.64816  Biso   1.000  O  -0.533342
  O63      1.0000 0.74112  0.42338  0.35184  Biso   1.000  O  -0.533656
  O64      1.0000 0.42338  0.25888  0.64816  Biso   1.000  O  -0.533865
  O65      1.0000 0.64816  0.25888  0.42338  Biso   1.000  O  -0.534074
  O66      1.0000 0.25888  0.64816  0.42338  Biso   1.000  O  -0.532613
  O67      1.0000 0.25888  0.35184  0.57662  Biso   1.000  O  -0.533920
  O68      1.0000 0.74112  0.35184  0.42338  Biso   1.000  O  -0.534078
  O69      1.0000 0.74112  0.64816  0.57662  Biso   1.000  O  -0.534008
  O70      1.0000 0.64816  0.74112  0.57662  Biso   1.000  O  -0.533986
  O71      1.0000 0.35184  0.74112  0.42338  Biso   1.000  O  -0.532604
  O72      1.0000 0.35184  0.25888  0.57662  Biso   1.000  O  -0.533968
  O73      1.0000 0.92338  0.14816  0.75888  Biso   1.000  O  -0.533751
  O74      1.0000 0.14816  0.07662  0.24112  Biso   1.000  O  -0.533423
  O75      1.0000 0.07662  0.85184  0.75888  Biso   1.000  O  -0.532683
  O76      1.0000 0.85184  0.92338  0.24112  Biso   1.000  O  -0.533837
  O77      1.0000 0.92338  0.85184  0.24112  Biso   1.000  O  -0.533731
  O78      1.0000 0.85184  0.07662  0.75888  Biso   1.000  O  -0.533974
  O79      1.0000 0.07662  0.14816  0.24112  Biso   1.000  O  -0.534056
  O80      1.0000 0.14816  0.92338  0.75888  Biso   1.000  O  -0.535967
  O81      1.0000 0.75888  0.92338  0.14816  Biso   1.000  O  -0.533872
  O82      1.0000 0.92338  0.24112  0.85184  Biso   1.000  O  -0.533761
  O83      1.0000 0.24112  0.07662  0.14816  Biso   1.000  O  -0.533309
  O84      1.0000 0.07662  0.75888  0.85184  Biso   1.000  O  -0.532673
  O85      1.0000 0.75888  0.07662  0.85184  Biso   1.000  O  -0.533777
  O86      1.0000 0.07662  0.24112  0.14816  Biso   1.000  O  -0.533891
  O87      1.0000 0.24112  0.92338  0.85184  Biso   1.000  O  -0.539702
  O88      1.0000 0.92338  0.75888  0.14816  Biso   1.000  O  -0.533518
  O89      1.0000 0.14816  0.75888  0.92338  Biso   1.000  O  -0.535418
  O90      1.0000 0.75888  0.14816  0.92338  Biso   1.000  O  -0.534010
  O91      1.0000 0.75888  0.85184  0.07662  Biso   1.000  O  -0.533984
  O92      1.0000 0.24112  0.85184  0.92338  Biso   1.000  O  -0.539339
  O93      1.0000 0.24112  0.14816  0.07662  Biso   1.000  O  -0.533697
  O94      1.0000 0.14816  0.24112  0.07662  Biso   1.000  O  -0.533843
  O95      1.0000 0.85184  0.24112  0.92338  Biso   1.000  O  -0.534010
  O96      1.0000 0.85184  0.75888  0.07662  Biso   1.000  O  -0.533949
  O97      1.0000 0.30071  0.69929  0.30071  Biso   1.000  O  -0.675817
  O98      1.0000 0.69929  0.69929  0.69929  Biso   1.000  O  -0.699761
  O99      1.0000 0.69929  0.30071  0.30071  Biso   1.000  O  -0.699531
  O100     1.0000 0.30071  0.30071  0.69929  Biso   1.000  O  -0.699525
  O101     1.0000 0.80071  0.19929  0.80071  Biso   1.000  O  -0.699581
  O102     1.0000 0.19929  0.19929  0.19929  Biso   1.000  O  -0.699481
  O103     1.0000 0.19929  0.80071  0.80071  Biso   1.000  O  -0.676005
  O104     1.0000 0.80071  0.80071  0.19929  Biso   1.000  O  -0.699526
