
##########################################################################
#               Crystallographic Information Format file
#               Produced by PyCifRW module
#
#  This is a CIF file.  CIF has been adopted by the International
#  Union of Crystallography as the standard for data archiving and
#  transmission.
#
#  For information on this file format, follow the CIF links at
#  http://www.iucr.org
##########################################################################

data_image0

_cell_length_a                          9.471
_cell_length_b                          17.3579
_cell_length_c                          19.6831
_cell_angle_alpha                       76.227
_cell_angle_beta                        83.232
_cell_angle_gamma                       88.407
_symmetry_space_group_name_H-M          'P 1'
_symmetry_int_tables_number             1
loop_
  _symmetry_equiv_pos_as_xyz
         'x, y, z' 
loop_
  _atom_site_label
  _atom_site_occupancy
  _atom_site_fract_x
  _atom_site_fract_y
  _atom_site_fract_z
  _atom_site_thermal_displace_type
  _atom_site_B_iso_or_equiv
  _atom_site_type_symbol
  _atom_site_charge
         C1        1.0000    0.84600   0.65840   0.96180   Biso      1.000     C          0.107128  
         C2        1.0000    0.84210   0.89240   0.08600   Biso      1.000     C          0.597966  
         C3        1.0000    0.56450   0.54710   0.25730   Biso      1.000     C          -0.136285           
         C4        1.0000    0.27830   0.36070   0.35910   Biso      1.000     C          0.18659   
         C5        1.0000    0.37100   0.29540   0.98720   Biso      1.000     C          0.123552  
         C6        1.0000    0.73190   0.58000   0.05920   Biso      1.000     C          0.090499  
         C7        1.0000    0.57070   0.10120   0.01180   Biso      1.000     C          0.093939  
         C8        1.0000    0.95240   0.45110   0.80110   Biso      1.000     C          -0.034869           
         C9        1.0000    0.05860   0.43940   0.66480   Biso      1.000     C          0.08078400000000001           
         C10       1.0000    0.27210   0.44310   0.57670   Biso      1.000     C          -0.132497           
         C11       1.0000    0.12530   0.42910   0.59590   Biso      1.000     C          0.055049  
         C12       1.0000    0.05720   0.50320   0.76170   Biso      1.000     C          -0.118077           
         C13       1.0000    0.62500   0.63330   0.06290   Biso      1.000     C          -0.167631           
         C14       1.0000    0.11440   0.39990   0.48190   Biso      1.000     C          -0.186559           
         C15       1.0000    0.53390   0.62270   0.26890   Biso      1.000     C          0.0522    
         C16       1.0000    0.39490   0.48590   0.35430   Biso      1.000     C          0.197512  
         C17       1.0000    0.61120   0.69380   0.22410   Biso      1.000     C          0.070614  
         C18       1.0000    0.14850   0.20060   0.24340   Biso      1.000     C          0.076777  
         C19       1.0000    0.50230   0.51870   0.70240   Biso      1.000     C          -0.18571  
         C20       1.0000    0.62370   0.25840   0.95920   Biso      1.000     C          -0.176361           
         C21       1.0000    0.48630   0.23520   0.98690   Biso      1.000     C          0.10313599999999999           
         C22       1.0000    0.51370   0.76480   0.01310   Biso      1.000     C          0.10313299999999999           
         C23       1.0000    0.49770   0.48130   0.29760   Biso      1.000     C          -0.185691           
         C24       1.0000    0.10770   0.49790   0.69440   Biso      1.000     C          -0.15313800000000002          
         C25       1.0000    0.54050   0.84590   0.98680   Biso      1.000     C          -0.172708           
         C26       1.0000    0.36380   0.56060   0.36580   Biso      1.000     C          -0.193511           
         C27       1.0000    0.72910   0.20220   0.95910   Biso      1.000     C          0.105326  
         C28       1.0000    0.45490   0.23230   0.79710   Biso      1.000     C          -0.159995           
         C29       1.0000    0.91280   0.89410   0.84690   Biso      1.000     C          -0.038515           
         C30       1.0000    0.78220   0.61070   0.70270   Biso      1.000     C          -0.177842           
         C31       1.0000    0.97080   0.78550   0.79210   Biso      1.000     C          -0.164037           
         C32       1.0000    0.95000   0.59420   0.45310   Biso      1.000     C          -0.129497           
         C33       1.0000    0.10290   0.60420   0.22900   Biso      1.000     C          -0.095828           
         C34       1.0000    0.38220   0.16880   0.84070   Biso      1.000     C          -0.104469           
         C35       1.0000    0.09730   0.54590   0.12410   Biso      1.000     C          0.585507  
         C36       1.0000    0.70770   0.72040   0.61510   Biso      1.000     C          -0.18111  
         C37       1.0000    0.81130   0.74500   0.71410   Biso      1.000     C          0.058227999999999995          
         C38       1.0000    0.76650   0.86540   0.76380   Biso      1.000     C          -0.16056800000000002          
         C39       1.0000    0.24410   0.31160   0.79960   Biso      1.000     C          -0.156352           
         C40       1.0000    0.75270   0.77320   0.65060   Biso      1.000     C          -0.137997           
         C41       1.0000    0.00120   0.83200   0.83690   Biso      1.000     C          -0.103948           
         C42       1.0000    0.82640   0.66400   0.73940   Biso      1.000     C          -0.137797           
         C43       1.0000    0.23770   0.17530   0.86460   Biso      1.000     C          -0.039179000000000005         
         C44       1.0000    0.79510   0.91150   0.80910   Biso      1.000     C          -0.106779           
         C45       1.0000    0.56890   0.37230   0.67550   Biso      1.000     C          -0.126324           
         C46       1.0000    0.74180   0.58410   0.53700   Biso      1.000     C          0.192195  
         C47       1.0000    0.66320   0.56490   0.48740   Biso      1.000     C          -0.19303199999999998          
         C48       1.0000    0.93980   0.94070   0.89930   Biso      1.000     C          0.600753  
         C49       1.0000    0.15400   0.34160   0.03820   Biso      1.000     C          0.107128  
         C50       1.0000    0.05060   0.61030   0.29620   Biso      1.000     C          -0.14716300000000002          
         C51       1.0000    0.74290   0.71710   0.95960   Biso      1.000     C          -0.176297           
         C52       1.0000    0.37500   0.36670   0.93710   Biso      1.000     C          -0.16764  
         C53       1.0000    0.25710   0.28290   0.04040   Biso      1.000     C          -0.176297           
         C54       1.0000    0.17120   0.24780   0.84230   Biso      1.000     C          -0.10192799999999999          
         C55       1.0000    0.21780   0.38930   0.29730   Biso      1.000     C          -0.177842           
         C56       1.0000    0.94280   0.49680   0.23830   Biso      1.000     C          -0.118077           
         C57       1.0000    0.15790   0.10760   0.91400   Biso      1.000     C          0.597966  
         C58       1.0000    0.82880   0.75220   0.15770   Biso      1.000     C          -0.101935           
         C59       1.0000    0.87470   0.57090   0.40410   Biso      1.000     C          0.055049  
         C60       1.0000    0.54510   0.76770   0.20290   Biso      1.000     C          -0.159996           
         C61       1.0000    0.08720   0.10590   0.15310   Biso      1.000     C          -0.038515           
         C62       1.0000    0.26810   0.42000   0.94080   Biso      1.000     C          0.09051100000000001           
         C63       1.0000    0.72790   0.55690   0.42330   Biso      1.000     C          -0.132492           
         C64       1.0000    0.89230   0.50210   0.30560   Biso      1.000     C          -0.15313800000000002          
         C65       1.0000    0.02920   0.21450   0.20790   Biso      1.000     C          -0.164037           
         C66       1.0000    0.94140   0.56060   0.33520   Biso      1.000     C          0.08078400000000001           
         C67       1.0000    0.61780   0.83120   0.15930   Biso      1.000     C          -0.104469           
         C68       1.0000    0.43550   0.45290   0.74270   Biso      1.000     C          -0.136265           
         C69       1.0000    0.90270   0.45410   0.87590   Biso      1.000     C          0.585507  
         C70       1.0000    0.04760   0.54890   0.19890   Biso      1.000     C          -0.034866           
         C71       1.0000    0.29230   0.27960   0.38490   Biso      1.000     C          -0.181109           
         C72       1.0000    0.72170   0.63930   0.64090   Biso      1.000     C          0.186591  
         C73       1.0000    0.42930   0.89880   0.98820   Biso      1.000     C          0.093941  
         C74       1.0000    0.62900   0.70460   0.01280   Biso      1.000     C          0.123554  
         C75       1.0000    0.05000   0.40580   0.54690   Biso      1.000     C          -0.129494           
         C76       1.0000    0.23350   0.13460   0.23620   Biso      1.000     C          -0.16056800000000002          
         C77       1.0000    0.89710   0.39580   0.77100   Biso      1.000     C          -0.095826           
         C78       1.0000    0.18870   0.25500   0.28590   Biso      1.000     C          0.058227999999999995          
         C79       1.0000    0.37630   0.74160   0.04080   Biso      1.000     C          -0.176358           
         C80       1.0000    0.45950   0.15410   0.01320   Biso      1.000     C          -0.172707           
         C81       1.0000    0.27090   0.79780   0.04090   Biso      1.000     C          0.105325  
         C82       1.0000    0.94940   0.38970   0.70380   Biso      1.000     C          -0.14716300000000002          
         C83       1.0000    0.06020   0.05930   0.10070   Biso      1.000     C          0.600753  
         C84       1.0000    0.63620   0.43940   0.63420   Biso      1.000     C          -0.19350599999999998          
         C85       1.0000    0.85150   0.79940   0.75660   Biso      1.000     C          0.076777  
         C86       1.0000    0.33680   0.43510   0.51260   Biso      1.000     C          -0.193028           
         C87       1.0000    0.25820   0.41590   0.46300   Biso      1.000     C          0.192197  
         C88       1.0000    0.20490   0.08850   0.19090   Biso      1.000     C          -0.106779           
         C89       1.0000    0.24730   0.22680   0.34940   Biso      1.000     C          -0.137997           
         C90       1.0000    0.43110   0.62770   0.32450   Biso      1.000     C          -0.12632000000000002          
         C91       1.0000    0.76230   0.82470   0.13540   Biso      1.000     C          -0.039178           
         C92       1.0000    0.60510   0.51410   0.64570   Biso      1.000     C          0.19751400000000002           
         C93       1.0000    0.17360   0.33600   0.26060   Biso      1.000     C          -0.137797           
         C94       1.0000    0.46610   0.37730   0.73110   Biso      1.000     C          0.052198  
         C95       1.0000    0.99880   0.16800   0.16310   Biso      1.000     C          -0.103948           
         C96       1.0000    0.88560   0.60010   0.51810   Biso      1.000     C          -0.186554           
         C97       1.0000    0.75590   0.68840   0.20040   Biso      1.000     C          -0.156345           
         C98       1.0000    0.38880   0.30620   0.77590   Biso      1.000     C          0.070615  
         H1        1.0000    0.17580   0.63770   0.20370   Biso      1.000     H          0.11406199999999998           
         H2        1.0000    0.90700   0.45830   0.21920   Biso      1.000     H          0.114699  
         H3        1.0000    0.70460   0.43450   0.59740   Biso      1.000     H          0.115043  
         H4        1.0000    0.79340   0.55640   0.71990   Biso      1.000     H          0.118934  
         H5        1.0000    0.36700   0.45790   0.77940   Biso      1.000     H          0.106492  
         H6        1.0000    0.74960   0.76330   0.92390   Biso      1.000     H          0.127861  
         H7        1.0000    0.19690   0.35960   0.78610   Biso      1.000     H          0.09953300000000001           
         H8        1.0000    0.08180   0.82130   0.86040   Biso      1.000     H          0.12078599999999999           
         H9        1.0000    0.86620   0.64480   0.78120   Biso      1.000     H          0.11334100000000001           
         H10       1.0000    0.59220   0.32310   0.66620   Biso      1.000     H          0.11616800000000001           
         H11       1.0000    0.56550   0.55750   0.49810   Biso      1.000     H          0.120217  
         H12       1.0000    0.67400   0.54190   0.39200   Biso      1.000     H          0.106825  
         H13       1.0000    0.63200   0.86400   0.96850   Biso      1.000     H          0.13481500000000002           
         H14       1.0000    0.82400   0.46610   0.33180   Biso      1.000     H          0.11301900000000001           
         H15       1.0000    0.93900   0.61500   0.54960   Biso      1.000     H          0.125647  
         H16       1.0000    0.72790   0.53290   0.09380   Biso      1.000     H          0.091731  
         H17       1.0000    0.54990   0.62200   0.09870   Biso      1.000     H          0.13561700000000002           
         H18       1.0000    0.48000   0.56780   0.71210   Biso      1.000     H          0.122439  
         H19       1.0000    0.07500   0.25310   0.85660   Biso      1.000     H          0.113043  
         H20       1.0000    0.35510   0.68820   0.05930   Biso      1.000     H          0.139403  
         H21       1.0000    0.44740   0.95260   0.96990   Biso      1.000     H          0.10343699999999999           
         H22       1.0000    0.08860   0.64790   0.31560   Biso      1.000     H          0.11403599999999998           
         H23       1.0000    0.07670   0.33240   0.07280   Biso      1.000     H          0.08703   
         H24       1.0000    0.03170   0.74410   0.78580   Biso      1.000     H          0.115167  
         H25       1.0000    0.25040   0.23670   0.07610   Biso      1.000     H          0.12786   
         H26       1.0000    0.52000   0.43220   0.28790   Biso      1.000     H          0.122438  
         H27       1.0000    0.55020   0.22640   0.78130   Biso      1.000     H          0.114417  
         H28       1.0000    0.27210   0.46710   0.90620   Biso      1.000     H          0.091731  
         H29       1.0000    0.36800   0.13600   0.03150   Biso      1.000     H          0.13481500000000002           
         H30       1.0000    0.91140   0.35210   0.68440   Biso      1.000     H          0.11403599999999998           
         H31       1.0000    0.43450   0.44250   0.50190   Biso      1.000     H          0.120217  
         H32       1.0000    0.40780   0.67690   0.33380   Biso      1.000     H          0.11616800000000001           
         H33       1.0000    0.13380   0.35520   0.21880   Biso      1.000     H          0.11334100000000001           
         H34       1.0000    0.91820   0.17870   0.13960   Biso      1.000     H          0.12078699999999999           
         H35       1.0000    0.64490   0.31180   0.94070   Biso      1.000     H          0.139403  
         H36       1.0000    0.80310   0.64040   0.21390   Biso      1.000     H          0.09953300000000001           
         H37       1.0000    0.20660   0.44360   0.28010   Biso      1.000     H          0.118934  
         H38       1.0000    0.92500   0.74690   0.14340   Biso      1.000     H          0.113043  
         H39       1.0000    0.44980   0.77360   0.21870   Biso      1.000     H          0.114417  
         H40       1.0000    0.96830   0.25590   0.21420   Biso      1.000     H          0.115167  
         H41       1.0000    0.95370   0.39410   0.55860   Biso      1.000     H          0.11103199999999999           
         H42       1.0000    0.57090   0.87920   0.14540   Biso      1.000     H          0.114658  
         H43       1.0000    0.33240   0.26060   0.42670   Biso      1.000     H          0.126851  
         H44       1.0000    0.31010   0.12180   0.26240   Biso      1.000     H          0.11480499999999999           
         H45       1.0000    0.25600   0.17260   0.36760   Biso      1.000     H          0.117726  
         H46       1.0000    0.26390   0.04600   0.18560   Biso      1.000     H          0.120118  
         H47       1.0000    0.82420   0.36230   0.79630   Biso      1.000     H          0.114061  
         H48       1.0000    0.06100   0.38500   0.45040   Biso      1.000     H          0.125647  
         H49       1.0000    0.45010   0.37800   0.90130   Biso      1.000     H          0.13561800000000002           
         H50       1.0000    0.32600   0.45810   0.60800   Biso      1.000     H          0.106825  
         H51       1.0000    0.68990   0.87820   0.73760   Biso      1.000     H          0.11480499999999999           
         H52       1.0000    0.66760   0.73940   0.57330   Biso      1.000     H          0.126851  
         H53       1.0000    0.42910   0.12080   0.85460   Biso      1.000     H          0.114658  
         H54       1.0000    0.73610   0.95400   0.81440   Biso      1.000     H          0.120118  
         H55       1.0000    0.17600   0.53390   0.66820   Biso      1.000     H          0.11301900000000001           
         H56       1.0000    0.92330   0.66760   0.92720   Biso      1.000     H          0.087029  
         H57       1.0000    0.04630   0.60590   0.44140   Biso      1.000     H          0.11103199999999999           
         H58       1.0000    0.82100   0.21890   0.94040   Biso      1.000     H          0.102835  
         H59       1.0000    0.29540   0.56550   0.40260   Biso      1.000     H          0.115043  
         H60       1.0000    0.09300   0.54170   0.78080   Biso      1.000     H          0.114699  
         H61       1.0000    0.63300   0.54210   0.22060   Biso      1.000     H          0.106493  
         H62       1.0000    0.55260   0.04740   0.03010   Biso      1.000     H          0.10343699999999999           
         H63       1.0000    0.17900   0.78110   0.05960   Biso      1.000     H          0.102835  
         H64       1.0000    0.74400   0.82740   0.63240   Biso      1.000     H          0.117726  
         N1        1.0000    0.32690   0.41573   0.39502   Biso      1.000     N          -0.188363           
         N2        1.0000    0.15780   0.40890   0.99084   Biso      1.000     N          -0.22045700000000001          
         N3        1.0000    0.70480   0.12438   0.98473   Biso      1.000     N          -0.198775           
         N4        1.0000    0.84220   0.59110   0.00916   Biso      1.000     N          -0.22045599999999999          
         N5        1.0000    0.67310   0.58427   0.60498   Biso      1.000     N          -0.188363           
         N6        1.0000    0.29520   0.87562   0.01527   Biso      1.000     N          -0.198775           
         O1        1.0000    0.03920   0.49236   0.10182   Biso      1.000     O          -0.618512           
         O2        1.0000    0.22880   0.04778   0.93990   Biso      1.000     O          -0.555439           
         O3        1.0000    0.84710   0.98859   0.91281   Biso      1.000     O          -0.5515869999999999           
         O4        1.0000    0.05210   0.92480   0.92695   Biso      1.000     O          -0.566998           
         O5        1.0000    0.02580   0.11465   0.92571   Biso      1.000     O          -0.5635100000000001           
         O6        1.0000    0.96080   0.50764   0.89818   Biso      1.000     O          -0.618513           
         O7        1.0000    0.77120   0.95222   0.06010   Biso      1.000     O          -0.5554399999999999           
         O8        1.0000    0.18670   0.59430   0.08944   Biso      1.000     O          -0.579937           
         O9        1.0000    0.15290   0.01141   0.08719   Biso      1.000     O          -0.5515869999999999           
         O10       1.0000    0.94790   0.07520   0.07305   Biso      1.000     O          -0.566998           
         O11       1.0000    0.97420   0.88535   0.07429   Biso      1.000     O          -0.5635100000000001           
         O12       1.0000    0.81330   0.40570   0.91056   Biso      1.000     O          -0.579937           
         Zn1       1.0000    0.13134   0.95381   0.01047   Biso      1.000     Zn          0.8416399999999999  
         Zn2       1.0000    0.86866   0.04619   0.98953   Biso      1.000     Zn          0.8416399999999999  
         Zn3       1.0000    0.00000   0.50000   0.00000   Biso      1.000     Zn          0.856713 