data_image0
_cell_length_a       17.8372
_cell_length_b       21.164
_cell_length_c       21.721
_cell_angle_alpha    90
_cell_angle_beta     90.3
_cell_angle_gamma    90

_symmetry_space_group_name_H-M    "P 1"
_symmetry_int_tables_number       1

loop_
  _symmetry_equiv_pos_as_xyz
  'x, y, z'

loop_
  _atom_site_label
  _atom_site_occupancy
  _atom_site_fract_x
  _atom_site_fract_y
  _atom_site_fract_z
  _atom_site_thermal_displace_type
  _atom_site_B_iso_or_equiv
  _atom_site_type_symbol
  _atom_site_charge
  C1       1.0000 0.36690  0.93670  0.52410  Biso   1.000  C  -0.130396
  C2       1.0000 0.32830  0.92950  0.58660  Biso   1.000  C  -0.126095
  C3       1.0000 0.26780  0.82730  0.58180  Biso   1.000  C  -0.119534
  C4       1.0000 0.20310  0.78950  0.55610  Biso   1.000  C  -0.141280
  C5       1.0000 0.23920  0.78010  0.44760  Biso   1.000  C  -0.121902
  C6       1.0000 0.23780  0.81080  0.38640  Biso   1.000  C  -0.126355
  C7       1.0000 0.32940  0.89330  0.39020  Biso   1.000  C  -0.129986
  C8       1.0000 0.34930  0.95800  0.41410  Biso   1.000  C  -0.125028
  C9       1.0000 0.52650  0.23120  0.49630  Biso   1.000  C  0.589570
  C10      1.0000 0.47430  0.17550  0.49210  Biso   1.000  C  -0.021812
  C11      1.0000 0.43430  0.16310  0.43880  Biso   1.000  C  -0.096248
  C12      1.0000 0.38090  0.11600  0.43980  Biso   1.000  C  -0.154021
  C13      1.0000 0.36480  0.08040  0.49120  Biso   1.000  C  0.112336
  C14      1.0000 0.40740  0.09290  0.54330  Biso   1.000  C  -0.165344
  C15      1.0000 0.45950  0.14040  0.54450  Biso   1.000  C  -0.111542
  C16      1.0000 0.30140  0.03630  0.49050  Biso   1.000  C  -0.177237
  C17      1.0000 0.32850  0.88910  0.87990  Biso   1.000  C  0.564892
  C18      1.0000 0.29300  0.89680  0.81600  Biso   1.000  C  -0.012873
  C19      1.0000 0.25290  0.84820  0.78780  Biso   1.000  C  -0.109720
  C20      1.0000 0.22420  0.85410  0.73050  Biso   1.000  C  -0.168850
  C21      1.0000 0.23400  0.90890  0.69590  Biso   1.000  C  0.104226
  C22      1.0000 0.27110  0.96120  0.72370  Biso   1.000  C  -0.176083
  C23      1.0000 0.29740  0.95570  0.78340  Biso   1.000  C  -0.095445
  C24      1.0000 0.20370  0.91500  0.63250  Biso   1.000  C  -0.177103
  C25      1.0000 0.89290  0.98210  0.51890  Biso   1.000  C  0.555256
  C26      1.0000 0.94510  0.92870  0.50870  Biso   1.000  C  -0.016507
  C27      1.0000 0.97380  0.91820  0.45170  Biso   1.000  C  -0.075236
  C28      1.0000 0.02550  0.87080  0.44080  Biso   1.000  C  -0.173273
  C29      1.0000 0.04760  0.83120  0.48840  Biso   1.000  C  0.101844
  C30      1.0000 0.01610  0.84020  0.54770  Biso   1.000  C  -0.166451
  C31      1.0000 0.96440  0.88860  0.55660  Biso   1.000  C  -0.084689
  C32      1.0000 0.10620  0.78160  0.47820  Biso   1.000  C  -0.174566
  C33      1.0000 0.33210  0.87210  0.09170  Biso   1.000  C  0.583103
  C34      1.0000 0.29890  0.88490  0.15410  Biso   1.000  C  -0.006731
  C35      1.0000 0.24900  0.84220  0.18010  Biso   1.000  C  -0.113486
  C36      1.0000 0.22040  0.85160  0.23860  Biso   1.000  C  -0.168488
  C37      1.0000 0.24200  0.90420  0.27340  Biso   1.000  C  0.108816
  C38      1.0000 0.28940  0.94680  0.24690  Biso   1.000  C  -0.162554
  C39      1.0000 0.32050  0.93690  0.18870  Biso   1.000  C  -0.091492
  C40      1.0000 0.21070  0.91550  0.33590  Biso   1.000  C  -0.179477
  C41      1.0000 0.63310  0.43670  0.97590  Biso   1.000  C  -0.130396
  C42      1.0000 0.67170  0.42950  0.91340  Biso   1.000  C  -0.126095
  C43      1.0000 0.73220  0.32730  0.91820  Biso   1.000  C  -0.119534
  C44      1.0000 0.79690  0.28950  0.94390  Biso   1.000  C  -0.141280
  C45      1.0000 0.76080  0.28010  0.05240  Biso   1.000  C  -0.121902
  C46      1.0000 0.76220  0.31080  0.11360  Biso   1.000  C  -0.126355
  C47      1.0000 0.67060  0.39330  0.10980  Biso   1.000  C  -0.129986
  C48      1.0000 0.65070  0.45800  0.08590  Biso   1.000  C  -0.125028
  C49      1.0000 0.47350  0.73120  0.00370  Biso   1.000  C  0.589570
  C50      1.0000 0.52570  0.67550  0.00790  Biso   1.000  C  -0.021812
  C51      1.0000 0.56570  0.66310  0.06120  Biso   1.000  C  -0.096248
  C52      1.0000 0.61910  0.61600  0.06020  Biso   1.000  C  -0.154021
  C53      1.0000 0.63520  0.58040  0.00880  Biso   1.000  C  0.112336
  C54      1.0000 0.59260  0.59290  0.95670  Biso   1.000  C  -0.165344
  C55      1.0000 0.54050  0.64040  0.95550  Biso   1.000  C  -0.111542
  C56      1.0000 0.69860  0.53630  0.00950  Biso   1.000  C  -0.177237
  C57      1.0000 0.67150  0.38910  0.62010  Biso   1.000  C  0.564891
  C58      1.0000 0.70700  0.39680  0.68400  Biso   1.000  C  -0.012874
  C59      1.0000 0.74710  0.34820  0.71220  Biso   1.000  C  -0.109720
  C60      1.0000 0.77580  0.35410  0.76950  Biso   1.000  C  -0.168850
  C61      1.0000 0.76600  0.40890  0.80410  Biso   1.000  C  0.104226
  C62      1.0000 0.72890  0.46120  0.77630  Biso   1.000  C  -0.176083
  C63      1.0000 0.70260  0.45570  0.71660  Biso   1.000  C  -0.095445
  C64      1.0000 0.79630  0.41500  0.86750  Biso   1.000  C  -0.177103
  C65      1.0000 0.10710  0.48210  0.98110  Biso   1.000  C  0.555256
  C66      1.0000 0.05490  0.42870  0.99130  Biso   1.000  C  -0.016507
  C67      1.0000 0.02620  0.41820  0.04830  Biso   1.000  C  -0.075236
  C68      1.0000 0.97450  0.37080  0.05920  Biso   1.000  C  -0.173273
  C69      1.0000 0.95240  0.33120  0.01160  Biso   1.000  C  0.101844
  C70      1.0000 0.98390  0.34020  0.95230  Biso   1.000  C  -0.166451
  C71      1.0000 0.03560  0.38860  0.94340  Biso   1.000  C  -0.084689
  C72      1.0000 0.89380  0.28160  0.02180  Biso   1.000  C  -0.174566
  C73      1.0000 0.66790  0.37210  0.40830  Biso   1.000  C  0.583103
  C74      1.0000 0.70110  0.38490  0.34590  Biso   1.000  C  -0.006731
  C75      1.0000 0.75100  0.34220  0.31990  Biso   1.000  C  -0.113486
  C76      1.0000 0.77960  0.35160  0.26140  Biso   1.000  C  -0.168488
  C77      1.0000 0.75800  0.40420  0.22660  Biso   1.000  C  0.108816
  C78      1.0000 0.71060  0.44680  0.25310  Biso   1.000  C  -0.162554
  C79      1.0000 0.67950  0.43690  0.31130  Biso   1.000  C  -0.091492
  C80      1.0000 0.78930  0.41550  0.16410  Biso   1.000  C  -0.179477
  C81      1.0000 0.63310  0.06330  0.47590  Biso   1.000  C  -0.130396
  C82      1.0000 0.67170  0.07050  0.41340  Biso   1.000  C  -0.126095
  C83      1.0000 0.73220  0.17270  0.41820  Biso   1.000  C  -0.119534
  C84      1.0000 0.79690  0.21050  0.44390  Biso   1.000  C  -0.141280
  C85      1.0000 0.76080  0.21990  0.55240  Biso   1.000  C  -0.121902
  C86      1.0000 0.76220  0.18920  0.61360  Biso   1.000  C  -0.126355
  C87      1.0000 0.67060  0.10670  0.60980  Biso   1.000  C  -0.129986
  C88      1.0000 0.65070  0.04200  0.58590  Biso   1.000  C  -0.125028
  C89      1.0000 0.47350  0.76880  0.50370  Biso   1.000  C  0.589570
  C90      1.0000 0.52570  0.82450  0.50790  Biso   1.000  C  -0.021812
  C91      1.0000 0.56570  0.83690  0.56120  Biso   1.000  C  -0.096248
  C92      1.0000 0.61910  0.88400  0.56020  Biso   1.000  C  -0.154021
  C93      1.0000 0.63520  0.91960  0.50880  Biso   1.000  C  0.112336
  C94      1.0000 0.59260  0.90710  0.45670  Biso   1.000  C  -0.165344
  C95      1.0000 0.54050  0.85960  0.45550  Biso   1.000  C  -0.111542
  C96      1.0000 0.69860  0.96370  0.50950  Biso   1.000  C  -0.177237
  C97      1.0000 0.67150  0.11090  0.12010  Biso   1.000  C  0.564892
  C98      1.0000 0.70700  0.10320  0.18400  Biso   1.000  C  -0.012874
  C99      1.0000 0.74710  0.15180  0.21220  Biso   1.000  C  -0.109720
  C100     1.0000 0.77580  0.14590  0.26950  Biso   1.000  C  -0.168850
  C101     1.0000 0.76600  0.09110  0.30410  Biso   1.000  C  0.104226
  C102     1.0000 0.72890  0.03880  0.27630  Biso   1.000  C  -0.176083
  C103     1.0000 0.70260  0.04430  0.21660  Biso   1.000  C  -0.095445
  C104     1.0000 0.79630  0.08500  0.36750  Biso   1.000  C  -0.177103
  C105     1.0000 0.10710  0.01790  0.48110  Biso   1.000  C  0.555256
  C106     1.0000 0.05490  0.07130  0.49130  Biso   1.000  C  -0.016507
  C107     1.0000 0.02620  0.08180  0.54830  Biso   1.000  C  -0.075236
  C108     1.0000 0.97450  0.12920  0.55920  Biso   1.000  C  -0.173273
  C109     1.0000 0.95240  0.16880  0.51160  Biso   1.000  C  0.101844
  C110     1.0000 0.98390  0.15980  0.45230  Biso   1.000  C  -0.166451
  C111     1.0000 0.03560  0.11140  0.44340  Biso   1.000  C  -0.084689
  C112     1.0000 0.89380  0.21840  0.52180  Biso   1.000  C  -0.174566
  C113     1.0000 0.66790  0.12790  0.90830  Biso   1.000  C  0.583103
  C114     1.0000 0.70110  0.11510  0.84590  Biso   1.000  C  -0.006731
  C115     1.0000 0.75100  0.15780  0.81990  Biso   1.000  C  -0.113486
  C116     1.0000 0.77960  0.14840  0.76140  Biso   1.000  C  -0.168488
  C117     1.0000 0.75800  0.09580  0.72660  Biso   1.000  C  0.108816
  C118     1.0000 0.71060  0.05320  0.75310  Biso   1.000  C  -0.162554
  C119     1.0000 0.67950  0.06310  0.81130  Biso   1.000  C  -0.091492
  C120     1.0000 0.78930  0.08450  0.66410  Biso   1.000  C  -0.179477
  C121     1.0000 0.36690  0.56330  0.02410  Biso   1.000  C  -0.130396
  C122     1.0000 0.32830  0.57050  0.08660  Biso   1.000  C  -0.126095
  C123     1.0000 0.26780  0.67270  0.08180  Biso   1.000  C  -0.119534
  C124     1.0000 0.20310  0.71050  0.05610  Biso   1.000  C  -0.141280
  C125     1.0000 0.23920  0.71990  0.94760  Biso   1.000  C  -0.121902
  C126     1.0000 0.23780  0.68920  0.88640  Biso   1.000  C  -0.126355
  C127     1.0000 0.32940  0.60670  0.89020  Biso   1.000  C  -0.129986
  C128     1.0000 0.34930  0.54200  0.91410  Biso   1.000  C  -0.125028
  C129     1.0000 0.52650  0.26880  0.99630  Biso   1.000  C  0.589570
  C130     1.0000 0.47430  0.32450  0.99210  Biso   1.000  C  -0.021812
  C131     1.0000 0.43430  0.33690  0.93880  Biso   1.000  C  -0.096248
  C132     1.0000 0.38090  0.38400  0.93980  Biso   1.000  C  -0.154021
  C133     1.0000 0.36480  0.41960  0.99120  Biso   1.000  C  0.112336
  C134     1.0000 0.40740  0.40710  0.04330  Biso   1.000  C  -0.165344
  C135     1.0000 0.45950  0.35960  0.04450  Biso   1.000  C  -0.111542
  C136     1.0000 0.30140  0.46370  0.99050  Biso   1.000  C  -0.177237
  C137     1.0000 0.32850  0.61090  0.37990  Biso   1.000  C  0.564892
  C138     1.0000 0.29300  0.60320  0.31600  Biso   1.000  C  -0.012874
  C139     1.0000 0.25290  0.65180  0.28780  Biso   1.000  C  -0.109720
  C140     1.0000 0.22420  0.64590  0.23050  Biso   1.000  C  -0.168850
  C141     1.0000 0.23400  0.59110  0.19590  Biso   1.000  C  0.104226
  C142     1.0000 0.27110  0.53880  0.22370  Biso   1.000  C  -0.176083
  C143     1.0000 0.29740  0.54430  0.28340  Biso   1.000  C  -0.095445
  C144     1.0000 0.20370  0.58500  0.13250  Biso   1.000  C  -0.177103
  C145     1.0000 0.89290  0.51790  0.01890  Biso   1.000  C  0.555256
  C146     1.0000 0.94510  0.57130  0.00870  Biso   1.000  C  -0.016507
  C147     1.0000 0.97380  0.58180  0.95170  Biso   1.000  C  -0.075236
  C148     1.0000 0.02550  0.62920  0.94080  Biso   1.000  C  -0.173273
  C149     1.0000 0.04760  0.66880  0.98840  Biso   1.000  C  0.101844
  C150     1.0000 0.01610  0.65980  0.04770  Biso   1.000  C  -0.166451
  C151     1.0000 0.96440  0.61140  0.05660  Biso   1.000  C  -0.084689
  C152     1.0000 0.10620  0.71840  0.97820  Biso   1.000  C  -0.174566
  C153     1.0000 0.33210  0.62790  0.59170  Biso   1.000  C  0.583103
  C154     1.0000 0.29890  0.61510  0.65410  Biso   1.000  C  -0.006731
  C155     1.0000 0.24900  0.65780  0.68010  Biso   1.000  C  -0.113486
  C156     1.0000 0.22040  0.64840  0.73860  Biso   1.000  C  -0.168488
  C157     1.0000 0.24200  0.59580  0.77340  Biso   1.000  C  0.108816
  C158     1.0000 0.28940  0.55320  0.74690  Biso   1.000  C  -0.162554
  C159     1.0000 0.32050  0.56310  0.68870  Biso   1.000  C  -0.091492
  C160     1.0000 0.21070  0.58450  0.83590  Biso   1.000  C  -0.179477
  Cd1      1.0000 0.60199  0.34068  0.51448  Biso   1.000  Cd  0.989364
  Cd2      1.0000 0.20036  0.91585  0.48289  Biso   1.000  Cd  0.679206
  Cd3      1.0000 0.39801  0.84068  0.98552  Biso   1.000  Cd  0.989364
  Cd4      1.0000 0.79964  0.41585  0.01711  Biso   1.000  Cd  0.679206
  Cd5      1.0000 0.39801  0.65932  0.48552  Biso   1.000  Cd  0.989364
  Cd6      1.0000 0.79964  0.08415  0.51711  Biso   1.000  Cd  0.679206
  Cd7      1.0000 0.60199  0.15932  0.01448  Biso   1.000  Cd  0.989364
  Cd8      1.0000 0.20036  0.58415  0.98289  Biso   1.000  Cd  0.679206
  H1       1.0000 0.38150  0.89450  0.50860  Biso   1.000  H  0.106112
  H2       1.0000 0.41300  0.96210  0.52930  Biso   1.000  H  0.098446
  H3       1.0000 0.31840  0.97210  0.60360  Biso   1.000  H  0.099851
  H4       1.0000 0.36290  0.90750  0.61520  Biso   1.000  H  0.110062
  H5       1.0000 0.31280  0.81860  0.55670  Biso   1.000  H  0.108744
  H6       1.0000 0.27840  0.81250  0.62410  Biso   1.000  H  0.100581
  H7       1.0000 0.21560  0.74400  0.55830  Biso   1.000  H  0.122450
  H8       1.0000 0.15820  0.79670  0.58180  Biso   1.000  H  0.095765
  H9       1.0000 0.28990  0.78450  0.46570  Biso   1.000  H  0.116284
  H10      1.0000 0.22890  0.73440  0.44250  Biso   1.000  H  0.120516
  H11      1.0000 0.27730  0.79150  0.36050  Biso   1.000  H  0.117076
  H12      1.0000 0.18890  0.80190  0.36640  Biso   1.000  H  0.092570
  H13      1.0000 0.35390  0.86130  0.41680  Biso   1.000  H  0.106910
  H14      1.0000 0.35010  0.88860  0.34830  Biso   1.000  H  0.104621
  H15      1.0000 0.40450  0.96260  0.41570  Biso   1.000  H  0.105308
  H16      1.0000 0.32910  0.99050  0.38580  Biso   1.000  H  0.106427
  H17      1.0000 0.44340  0.18650  0.40230  Biso   1.000  H  0.124848
  H18      1.0000 0.35370  0.10760  0.40300  Biso   1.000  H  0.105130
  H19      1.0000 0.40040  0.06780  0.57910  Biso   1.000  H  0.105313
  H20      1.0000 0.48570  0.14950  0.58170  Biso   1.000  H  0.118148
  H21      1.0000 0.27600  0.03940  0.53080  Biso   1.000  H  0.113965
  H22      1.0000 0.26540  0.05110  0.45890  Biso   1.000  H  0.120081
  H23      1.0000 0.24540  0.80990  0.80960  Biso   1.000  H  0.102887
  H24      1.0000 0.19670  0.82000  0.71320  Biso   1.000  H  0.102448
  H25      1.0000 0.27780  0.99950  0.70140  Biso   1.000  H  0.113669
  H26      1.0000 0.31880  0.99150  0.80320  Biso   1.000  H  0.121903
  H27      1.0000 0.15690  0.88990  0.62930  Biso   1.000  H  0.109431
  H28      1.0000 0.19050  0.95980  0.62500  Biso   1.000  H  0.119548
  H29      1.0000 0.95790  0.94410  0.41840  Biso   1.000  H  0.117213
  H30      1.0000 0.04580  0.86540  0.40080  Biso   1.000  H  0.114920
  H31      1.0000 0.03030  0.81350  0.58100  Biso   1.000  H  0.113721
  H32      1.0000 0.94210  0.89410  0.59590  Biso   1.000  H  0.117259
  H33      1.0000 0.09690  0.74550  0.50620  Biso   1.000  H  0.119742
  H34      1.0000 0.10240  0.76590  0.43540  Biso   1.000  H  0.118443
  H35      1.0000 0.23420  0.80580  0.15740  Biso   1.000  H  0.107415
  H36      1.0000 0.18580  0.82210  0.25520  Biso   1.000  H  0.105362
  H37      1.0000 0.30160  0.98430  0.26870  Biso   1.000  H  0.106528
  H38      1.0000 0.35640  0.96580  0.17290  Biso   1.000  H  0.124519
  H39      1.0000 0.21330  0.96130  0.34470  Biso   1.000  H  0.120304
  H40      1.0000 0.15710  0.90330  0.33550  Biso   1.000  H  0.114214
  H41      1.0000 0.61850  0.39450  0.99140  Biso   1.000  H  0.106112
  H42      1.0000 0.58700  0.46210  0.97070  Biso   1.000  H  0.098446
  H43      1.0000 0.68160  0.47210  0.89640  Biso   1.000  H  0.099851
  H44      1.0000 0.63710  0.40750  0.88480  Biso   1.000  H  0.110061
  H45      1.0000 0.68720  0.31860  0.94330  Biso   1.000  H  0.108743
  H46      1.0000 0.72160  0.31250  0.87590  Biso   1.000  H  0.100581
  H47      1.0000 0.78440  0.24400  0.94170  Biso   1.000  H  0.122450
  H48      1.0000 0.84180  0.29670  0.91820  Biso   1.000  H  0.095765
  H49      1.0000 0.71010  0.28450  0.03430  Biso   1.000  H  0.116284
  H50      1.0000 0.77110  0.23440  0.05750  Biso   1.000  H  0.120516
  H51      1.0000 0.72270  0.29150  0.13950  Biso   1.000  H  0.117076
  H52      1.0000 0.81110  0.30190  0.13360  Biso   1.000  H  0.092570
  H53      1.0000 0.64610  0.36130  0.08320  Biso   1.000  H  0.106910
  H54      1.0000 0.64990  0.38860  0.15170  Biso   1.000  H  0.104621
  H55      1.0000 0.59550  0.46260  0.08430  Biso   1.000  H  0.105308
  H56      1.0000 0.67090  0.49050  0.11420  Biso   1.000  H  0.106427
  H57      1.0000 0.55660  0.68650  0.09770  Biso   1.000  H  0.124848
  H58      1.0000 0.64630  0.60760  0.09700  Biso   1.000  H  0.105130
  H59      1.0000 0.59960  0.56780  0.92090  Biso   1.000  H  0.105313
  H60      1.0000 0.51430  0.64950  0.91830  Biso   1.000  H  0.118148
  H61      1.0000 0.72400  0.53940  0.96920  Biso   1.000  H  0.113965
  H62      1.0000 0.73460  0.55110  0.04110  Biso   1.000  H  0.120081
  H63      1.0000 0.75460  0.30990  0.69040  Biso   1.000  H  0.102887
  H64      1.0000 0.80330  0.32000  0.78680  Biso   1.000  H  0.102448
  H65      1.0000 0.72220  0.49950  0.79860  Biso   1.000  H  0.113669
  H66      1.0000 0.68120  0.49150  0.69680  Biso   1.000  H  0.121903
  H67      1.0000 0.84310  0.38990  0.87070  Biso   1.000  H  0.109431
  H68      1.0000 0.80950  0.45980  0.87500  Biso   1.000  H  0.119548
  H69      1.0000 0.04210  0.44410  0.08160  Biso   1.000  H  0.117213
  H70      1.0000 0.95420  0.36540  0.09920  Biso   1.000  H  0.114920
  H71      1.0000 0.96970  0.31350  0.91900  Biso   1.000  H  0.113720
  H72      1.0000 0.05790  0.39410  0.90410  Biso   1.000  H  0.117259
  H73      1.0000 0.90310  0.24550  0.99380  Biso   1.000  H  0.119742
  H74      1.0000 0.89760  0.26590  0.06460  Biso   1.000  H  0.118443
  H75      1.0000 0.76580  0.30580  0.34260  Biso   1.000  H  0.107415
  H76      1.0000 0.81420  0.32210  0.24480  Biso   1.000  H  0.105362
  H77      1.0000 0.69840  0.48430  0.23130  Biso   1.000  H  0.106528
  H78      1.0000 0.64360  0.46580  0.32710  Biso   1.000  H  0.124519
  H79      1.0000 0.78670  0.46130  0.15530  Biso   1.000  H  0.120304
  H80      1.0000 0.84290  0.40330  0.16450  Biso   1.000  H  0.114214
  H81      1.0000 0.61850  0.10550  0.49140  Biso   1.000  H  0.106112
  H82      1.0000 0.58700  0.03790  0.47070  Biso   1.000  H  0.098446
  H83      1.0000 0.68160  0.02790  0.39640  Biso   1.000  H  0.099851
  H84      1.0000 0.63710  0.09250  0.38480  Biso   1.000  H  0.110062
  H85      1.0000 0.68720  0.18140  0.44330  Biso   1.000  H  0.108743
  H86      1.0000 0.72160  0.18750  0.37590  Biso   1.000  H  0.100581
  H87      1.0000 0.78440  0.25600  0.44170  Biso   1.000  H  0.122450
  H88      1.0000 0.84180  0.20330  0.41820  Biso   1.000  H  0.095765
  H89      1.0000 0.71010  0.21550  0.53430  Biso   1.000  H  0.116284
  H90      1.0000 0.77110  0.26560  0.55750  Biso   1.000  H  0.120516
  H91      1.0000 0.72270  0.20850  0.63950  Biso   1.000  H  0.117076
  H92      1.0000 0.81110  0.19810  0.63360  Biso   1.000  H  0.092570
  H93      1.0000 0.64610  0.13870  0.58320  Biso   1.000  H  0.106910
  H94      1.0000 0.64990  0.11140  0.65170  Biso   1.000  H  0.104620
  H95      1.0000 0.59550  0.03740  0.58430  Biso   1.000  H  0.105308
  H96      1.0000 0.67090  0.00950  0.61420  Biso   1.000  H  0.106427
  H97      1.0000 0.55660  0.81350  0.59770  Biso   1.000  H  0.124847
  H98      1.0000 0.64630  0.89240  0.59700  Biso   1.000  H  0.105129
  H99      1.0000 0.59960  0.93220  0.42090  Biso   1.000  H  0.105313
  H100     1.0000 0.51430  0.85050  0.41830  Biso   1.000  H  0.118148
  H101     1.0000 0.72400  0.96060  0.46920  Biso   1.000  H  0.113965
  H102     1.0000 0.73460  0.94890  0.54110  Biso   1.000  H  0.120081
  H103     1.0000 0.75460  0.19010  0.19040  Biso   1.000  H  0.102887
  H104     1.0000 0.80330  0.18000  0.28680  Biso   1.000  H  0.102448
  H105     1.0000 0.72220  0.00050  0.29860  Biso   1.000  H  0.113669
  H106     1.0000 0.68120  0.00850  0.19680  Biso   1.000  H  0.121902
  H107     1.0000 0.84310  0.11010  0.37070  Biso   1.000  H  0.109431
  H108     1.0000 0.80950  0.04020  0.37500  Biso   1.000  H  0.119548
  H109     1.0000 0.04210  0.05590  0.58160  Biso   1.000  H  0.117213
  H110     1.0000 0.95420  0.13460  0.59920  Biso   1.000  H  0.114920
  H111     1.0000 0.96970  0.18650  0.41900  Biso   1.000  H  0.113721
  H112     1.0000 0.05790  0.10590  0.40410  Biso   1.000  H  0.117258
  H113     1.0000 0.90310  0.25450  0.49380  Biso   1.000  H  0.119742
  H114     1.0000 0.89760  0.23410  0.56460  Biso   1.000  H  0.118443
  H115     1.0000 0.76580  0.19420  0.84260  Biso   1.000  H  0.107415
  H116     1.0000 0.81420  0.17790  0.74480  Biso   1.000  H  0.105362
  H117     1.0000 0.69840  0.01570  0.73130  Biso   1.000  H  0.106527
  H118     1.0000 0.64360  0.03420  0.82710  Biso   1.000  H  0.124518
  H119     1.0000 0.78670  0.03870  0.65530  Biso   1.000  H  0.120304
  H120     1.0000 0.84290  0.09670  0.66450  Biso   1.000  H  0.114214
  H121     1.0000 0.38150  0.60550  0.00860  Biso   1.000  H  0.106112
  H122     1.0000 0.41300  0.53790  0.02930  Biso   1.000  H  0.098446
  H123     1.0000 0.31840  0.52790  0.10360  Biso   1.000  H  0.099851
  H124     1.0000 0.36290  0.59250  0.11520  Biso   1.000  H  0.110062
  H125     1.0000 0.31280  0.68140  0.05670  Biso   1.000  H  0.108743
  H126     1.0000 0.27840  0.68750  0.12410  Biso   1.000  H  0.100581
  H127     1.0000 0.21560  0.75600  0.05830  Biso   1.000  H  0.122450
  H128     1.0000 0.15820  0.70330  0.08180  Biso   1.000  H  0.095765
  H129     1.0000 0.28990  0.71550  0.96570  Biso   1.000  H  0.116284
  H130     1.0000 0.22890  0.76560  0.94250  Biso   1.000  H  0.120516
  H131     1.0000 0.27730  0.70850  0.86050  Biso   1.000  H  0.117076
  H132     1.0000 0.18890  0.69810  0.86640  Biso   1.000  H  0.092570
  H133     1.0000 0.35390  0.63870  0.91680  Biso   1.000  H  0.106910
  H134     1.0000 0.35010  0.61140  0.84830  Biso   1.000  H  0.104620
  H135     1.0000 0.40450  0.53740  0.91570  Biso   1.000  H  0.105308
  H136     1.0000 0.32910  0.50950  0.88580  Biso   1.000  H  0.106427
  H137     1.0000 0.44340  0.31350  0.90230  Biso   1.000  H  0.124847
  H138     1.0000 0.35370  0.39240  0.90300  Biso   1.000  H  0.105129
  H139     1.0000 0.40040  0.43220  0.07910  Biso   1.000  H  0.105313
  H140     1.0000 0.48570  0.35050  0.08170  Biso   1.000  H  0.118148
  H141     1.0000 0.27600  0.46060  0.03080  Biso   1.000  H  0.113965
  H142     1.0000 0.26540  0.44890  0.95890  Biso   1.000  H  0.120081
  H143     1.0000 0.24540  0.69010  0.30960  Biso   1.000  H  0.102887
  H144     1.0000 0.19670  0.68000  0.21320  Biso   1.000  H  0.102448
  H145     1.0000 0.27780  0.50050  0.20140  Biso   1.000  H  0.113669
  H146     1.0000 0.31880  0.50850  0.30320  Biso   1.000  H  0.121902
  H147     1.0000 0.15690  0.61010  0.12930  Biso   1.000  H  0.109431
  H148     1.0000 0.19050  0.54020  0.12500  Biso   1.000  H  0.119548
  H149     1.0000 0.95790  0.55590  0.91840  Biso   1.000  H  0.117213
  H150     1.0000 0.04580  0.63460  0.90080  Biso   1.000  H  0.114920
  H151     1.0000 0.03030  0.68650  0.08100  Biso   1.000  H  0.113720
  H152     1.0000 0.94210  0.60590  0.09590  Biso   1.000  H  0.117258
  H153     1.0000 0.09690  0.75450  0.00620  Biso   1.000  H  0.119742
  H154     1.0000 0.10240  0.73410  0.93540  Biso   1.000  H  0.118443
  H155     1.0000 0.23420  0.69420  0.65740  Biso   1.000  H  0.107415
  H156     1.0000 0.18580  0.67790  0.75520  Biso   1.000  H  0.105362
  H157     1.0000 0.30160  0.51570  0.76870  Biso   1.000  H  0.106527
  H158     1.0000 0.35640  0.53420  0.67290  Biso   1.000  H  0.124518
  H159     1.0000 0.21330  0.53870  0.84470  Biso   1.000  H  0.120304
  H160     1.0000 0.15710  0.59670  0.83550  Biso   1.000  H  0.114214
  N1       1.0000 0.25610  0.89370  0.58337  Biso   1.000  N  -0.093323
  N2       1.0000 0.31690  0.96780  0.47842  Biso   1.000  N  -0.101938
  N3       1.0000 0.18470  0.80681  0.48960  Biso   1.000  N  -0.093725
  N4       1.0000 0.24950  0.88040  0.38791  Biso   1.000  N  -0.091402
  N5       1.0000 0.74390  0.39370  0.91663  Biso   1.000  N  -0.093323
  N6       1.0000 0.68310  0.46780  0.02158  Biso   1.000  N  -0.101938
  N7       1.0000 0.81530  0.30681  0.01040  Biso   1.000  N  -0.093725
  N8       1.0000 0.75050  0.38040  0.11209  Biso   1.000  N  -0.091402
  N9       1.0000 0.74390  0.10630  0.41663  Biso   1.000  N  -0.093323
  N10      1.0000 0.68310  0.03220  0.52158  Biso   1.000  N  -0.101938
  N11      1.0000 0.81530  0.19319  0.51040  Biso   1.000  N  -0.093725
  N12      1.0000 0.75050  0.11960  0.61209  Biso   1.000  N  -0.091402
  N13      1.0000 0.25610  0.60630  0.08337  Biso   1.000  N  -0.093323
  N14      1.0000 0.31690  0.53220  0.97842  Biso   1.000  N  -0.101938
  N15      1.0000 0.18470  0.69319  0.98960  Biso   1.000  N  -0.093725
  N16      1.0000 0.24950  0.61960  0.88791  Biso   1.000  N  -0.091402
  O1       1.0000 0.51790  0.27690  0.45840  Biso   1.000  O  -0.603271
  O2       1.0000 0.57360  0.23310  0.53360  Biso   1.000  O  -0.561880
  O3       1.0000 0.35020  0.93830  0.90610  Biso   1.000  O  -0.581523
  O4       1.0000 0.32840  0.83630  0.90062  Biso   1.000  O  -0.550183
  O5       1.0000 0.86440  0.99327  0.57002  Biso   1.000  O  -0.565869
  O6       1.0000 0.87530  0.01488  0.47126  Biso   1.000  O  -0.557500
  O7       1.0000 0.31010  0.82520  0.06300  Biso   1.000  O  -0.587414
  O8       1.0000 0.38080  0.90776  0.07123  Biso   1.000  O  -0.549509
  O9       1.0000 0.48210  0.77690  0.04160  Biso   1.000  O  -0.603271
  O10      1.0000 0.42640  0.73310  0.96640  Biso   1.000  O  -0.561880
  O11      1.0000 0.64980  0.43830  0.59390  Biso   1.000  O  -0.581523
  O12      1.0000 0.67160  0.33630  0.59938  Biso   1.000  O  -0.550183
  O13      1.0000 0.13560  0.49327  0.92998  Biso   1.000  O  -0.565869
  O14      1.0000 0.12470  0.51488  0.02874  Biso   1.000  O  -0.557500
  O15      1.0000 0.68990  0.32520  0.43700  Biso   1.000  O  -0.587414
  O16      1.0000 0.61920  0.40776  0.42877  Biso   1.000  O  -0.549509
  O17      1.0000 0.48210  0.72310  0.54160  Biso   1.000  O  -0.603271
  O18      1.0000 0.42640  0.76690  0.46640  Biso   1.000  O  -0.561880
  O19      1.0000 0.64980  0.06170  0.09390  Biso   1.000  O  -0.581523
  O20      1.0000 0.67160  0.16370  0.09938  Biso   1.000  O  -0.550183
  O21      1.0000 0.13560  0.00673  0.42998  Biso   1.000  O  -0.565869
  O22      1.0000 0.12470  0.98512  0.52874  Biso   1.000  O  -0.557500
  O23      1.0000 0.68990  0.17480  0.93700  Biso   1.000  O  -0.587414
  O24      1.0000 0.61920  0.09224  0.92877  Biso   1.000  O  -0.549509
  O25      1.0000 0.51790  0.22310  0.95840  Biso   1.000  O  -0.603271
  O26      1.0000 0.57360  0.26690  0.03360  Biso   1.000  O  -0.561880
  O27      1.0000 0.35020  0.56170  0.40610  Biso   1.000  O  -0.581523
  O28      1.0000 0.32840  0.66370  0.40062  Biso   1.000  O  -0.550183
  O29      1.0000 0.86440  0.50673  0.07002  Biso   1.000  O  -0.565869
  O30      1.0000 0.87530  0.48512  0.97126  Biso   1.000  O  -0.557500
  O31      1.0000 0.31010  0.67480  0.56300  Biso   1.000  O  -0.587414
  O32      1.0000 0.38080  0.59224  0.57123  Biso   1.000  O  -0.549509
