
##########################################################################
#               Crystallographic Information Format file
#               Produced by PyCifRW module
#
#  This is a CIF file.  CIF has been adopted by the International
#  Union of Crystallography as the standard for data archiving and
#  transmission.
#
#  For information on this file format, follow the CIF links at
#  http://www.iucr.org
##########################################################################

data_image0

_cell_length_a                          7.535
_cell_length_b                          10.466
_cell_length_c                          21.513
_cell_angle_alpha                       90
_cell_angle_beta                        90
_cell_angle_gamma                       96.666
_symmetry_space_group_name_H-M          'P 1'
_symmetry_int_tables_number             1
loop_
  _symmetry_equiv_pos_as_xyz
         'x, y, z' 
loop_
  _atom_site_label
  _atom_site_occupancy
  _atom_site_fract_x
  _atom_site_fract_y
  _atom_site_fract_z
  _atom_site_thermal_displace_type
  _atom_site_B_iso_or_equiv
  _atom_site_type_symbol
  _atom_site_charge
         C1        1.0000    0.90930   0.97600   0.99508   Biso      1.000     C          0.086069  
         C2        1.0000    0.06570   0.17710   0.16541   Biso      1.000     C          0.621406  
         C3        1.0000    0.13820   0.08830   0.06162   Biso      1.000     C          -0.167849           
         C4        1.0000    0.44420   0.45540   0.01785   Biso      1.000     C          0.090961  
         C5        1.0000    0.73120   0.58600   0.00409   Biso      1.000     C          -0.130865           
         C6        1.0000    0.50690   0.41370   0.07567   Biso      1.000     C          -0.17466700000000002          
         C7        1.0000    0.78860   0.54400   0.05947   Biso      1.000     C          -0.106151           
         C8        1.0000    0.33250   0.05900   0.40451   Biso      1.000     C          -0.109027           
         C9        1.0000    0.26880   0.41400   0.99591   Biso      1.000     C          -0.130867           
         C10       1.0000    0.78300   0.99520   0.04138   Biso      1.000     C          -0.151203           
         C11       1.0000    0.74090   0.41690   0.15791   Biso      1.000     C          0.594435  
         C12       1.0000    0.67430   0.45760   0.09694   Biso      1.000     C          -0.027148000000000002         
         C13       1.0000    0.83250   0.05900   0.09549   Biso      1.000     C          -0.109024           
         C14       1.0000    0.43430   0.82290   0.66541   Biso      1.000     C          0.621402  
         C15       1.0000    0.36180   0.91170   0.56162   Biso      1.000     C          -0.167847           
         C16       1.0000    0.01400   0.10620   0.10589   Biso      1.000     C          -0.029639999999999996         
         C17       1.0000    0.05580   0.54460   0.51785   Biso      1.000     C          0.090961  
         C18       1.0000    0.17430   0.45760   0.40306   Biso      1.000     C          -0.027155000000000002         
         C19       1.0000    0.28300   0.99520   0.45862   Biso      1.000     C          -0.151199           
         C20       1.0000    0.09070   0.02400   0.00492   Biso      1.000     C          0.086069  
         C21       1.0000    0.98600   0.89380   0.89411   Biso      1.000     C          -0.029643           
         C22       1.0000    0.21700   0.00480   0.95862   Biso      1.000     C          -0.151203           
         C23       1.0000    0.25910   0.58310   0.84209   Biso      1.000     C          0.594433  
         C24       1.0000    0.32570   0.54240   0.90306   Biso      1.000     C          -0.02715  
         C25       1.0000    0.16750   0.94100   0.90451   Biso      1.000     C          -0.109017           
         C26       1.0000    0.24090   0.41690   0.34209   Biso      1.000     C          0.594435  
         C27       1.0000    0.56570   0.17710   0.33459   Biso      1.000     C          0.6214069999999999  
         C28       1.0000    0.94420   0.45540   0.48215   Biso      1.000     C          0.09096   
         C29       1.0000    0.23120   0.58600   0.49591   Biso      1.000     C          -0.130865           
         C30       1.0000    0.00690   0.41370   0.42433   Biso      1.000     C          -0.17466199999999998          
         C31       1.0000    0.28860   0.54400   0.44053   Biso      1.000     C          -0.106151           
         C32       1.0000    0.40930   0.97600   0.50492   Biso      1.000     C          0.08607000000000001           
         C33       1.0000    0.51400   0.10620   0.39411   Biso      1.000     C          -0.029647000000000003         
         C34       1.0000    0.63820   0.08830   0.43838   Biso      1.000     C          -0.16784000000000002          
         C35       1.0000    0.76880   0.41400   0.50409   Biso      1.000     C          -0.130868           
         C36       1.0000    0.99310   0.58630   0.57567   Biso      1.000     C          -0.17466700000000002          
         C37       1.0000    0.71140   0.45600   0.55947   Biso      1.000     C          -0.106148           
         C38       1.0000    0.93430   0.82290   0.83459   Biso      1.000     C          0.6214029999999999  
         C39       1.0000    0.86180   0.91170   0.93838   Biso      1.000     C          -0.16784000000000002          
         C40       1.0000    0.55580   0.54460   0.98215   Biso      1.000     C          0.090961  
         C41       1.0000    0.21140   0.45600   0.94053   Biso      1.000     C          -0.106148           
         C42       1.0000    0.66750   0.94100   0.59549   Biso      1.000     C          -0.109021           
         C43       1.0000    0.49310   0.58630   0.92433   Biso      1.000     C          -0.17465999999999998          
         C44       1.0000    0.59070   0.02400   0.49508   Biso      1.000     C          0.086069  
         C45       1.0000    0.48600   0.89380   0.60589   Biso      1.000     C          -0.029635           
         C46       1.0000    0.71700   0.00480   0.54138   Biso      1.000     C          -0.151199           
         C47       1.0000    0.75910   0.58310   0.65791   Biso      1.000     C          0.594432  
         C48       1.0000    0.82570   0.54240   0.59694   Biso      1.000     C          -0.027145999999999997         
         H1        1.0000    0.74270   0.88090   0.93120   Biso      1.000     H          0.12326199999999998           
         H2        1.0000    0.75310   0.92860   0.62540   Biso      1.000     H          0.125566  
         H3        1.0000    0.83630   0.03600   0.53520   Biso      1.000     H          0.11767000000000001           
         H4        1.0000    0.59630   0.42810   0.57310   Biso      1.000     H          0.124574  
         H5        1.0000    0.06680   0.64440   0.59960   Biso      1.000     H          0.11954100000000001           
         H6        1.0000    0.69250   0.35760   0.48020   Biso      1.000     H          0.12212   
         H7        1.0000    0.24270   0.88090   0.56880   Biso      1.000     H          0.12326300000000001           
         H8        1.0000    0.74690   0.07140   0.12540   Biso      1.000     H          0.125564  
         H9        1.0000    0.66370   0.96400   0.03520   Biso      1.000     H          0.117665  
         H10       1.0000    0.90370   0.57190   0.07310   Biso      1.000     H          0.124573  
         H11       1.0000    0.43320   0.35560   0.09960   Biso      1.000     H          0.11954100000000001           
         H12       1.0000    0.25730   0.11910   0.06880   Biso      1.000     H          0.12326199999999998           
         H13       1.0000    0.24690   0.07140   0.37460   Biso      1.000     H          0.125566  
         H14       1.0000    0.40370   0.57190   0.42690   Biso      1.000     H          0.124573  
         H15       1.0000    0.93320   0.35560   0.40040   Biso      1.000     H          0.11954000000000001           
         H16       1.0000    0.30750   0.64240   0.51980   Biso      1.000     H          0.12212   
         H17       1.0000    0.75730   0.11910   0.43120   Biso      1.000     H          0.12326199999999998           
         H18       1.0000    0.25310   0.92860   0.87460   Biso      1.000     H          0.125565  
         H19       1.0000    0.33630   0.03600   0.96480   Biso      1.000     H          0.11766900000000001           
         H20       1.0000    0.09630   0.42810   0.92690   Biso      1.000     H          0.12457599999999999           
         H21       1.0000    0.56680   0.64440   0.90040   Biso      1.000     H          0.11954100000000001           
         H22       1.0000    0.19250   0.35760   0.01980   Biso      1.000     H          0.12212100000000001           
         H23       1.0000    0.80750   0.64240   0.98020   Biso      1.000     H          0.12212100000000001           
         H24       1.0000    0.16370   0.96400   0.46480   Biso      1.000     H          0.117666  
         Mn1       1.0000    0.62560   0.66741   0.76239   Biso      1.000     Mn          1.038273  
         Mn2       1.0000    0.12560   0.66741   0.73761   Biso      1.000     Mn          1.038282  
         Mn3       1.0000    0.37440   0.33259   0.23761   Biso      1.000     Mn          1.038303  
         Mn4       1.0000    0.87440   0.33259   0.26239   Biso      1.000     Mn          1.038303  
         O1        1.0000    0.09840   0.55448   0.82851   Biso      1.000     O          -0.534597           
         O2        1.0000    0.36480   0.64742   0.80368   Biso      1.000     O          -0.606634           
         O3        1.0000    0.72610   0.22582   0.33007   Biso      1.000     O          -0.573572           
         O4        1.0000    0.44840   0.18095   0.29393   Biso      1.000     O          -0.5525479999999999           
         O5        1.0000    0.40160   0.44552   0.32851   Biso      1.000     O          -0.5345949999999999           
         O6        1.0000    0.13520   0.35258   0.30368   Biso      1.000     O          -0.606638           
         O7        1.0000    0.22610   0.22582   0.16993   Biso      1.000     O          -0.573572           
         O8        1.0000    0.94840   0.18095   0.20607   Biso      1.000     O          -0.5525479999999999           
         O9        1.0000    0.90160   0.44552   0.17149   Biso      1.000     O          -0.5345949999999999           
         O10       1.0000    0.63520   0.35258   0.19632   Biso      1.000     O          -0.606638           
         O11       1.0000    0.27390   0.77418   0.66993   Biso      1.000     O          -0.573571           
         O12       1.0000    0.55160   0.81905   0.70607   Biso      1.000     O          -0.552546           
         O13       1.0000    0.59840   0.55448   0.67149   Biso      1.000     O          -0.534597           
         O14       1.0000    0.86480   0.64742   0.69632   Biso      1.000     O          -0.606636           
         O15       1.0000    0.05160   0.81905   0.79393   Biso      1.000     O          -0.5525479999999999           
         O16       1.0000    0.77390   0.77418   0.83007   Biso      1.000     O          -0.573569 