
##########################################################################
#               Crystallographic Information Format file
#               Produced by PyCifRW module
#
#  This is a CIF file.  CIF has been adopted by the International
#  Union of Crystallography as the standard for data archiving and
#  transmission.
#
#  For information on this file format, follow the CIF links at
#  http://www.iucr.org
##########################################################################

data_image0

_cell_length_a                          10.7731
_cell_length_b                          12.4199
_cell_length_c                          13.5326
_cell_angle_alpha                       99.0989
_cell_angle_beta                        90
_cell_angle_gamma                       115.703
_symmetry_space_group_name_H-M          'P 1'
_symmetry_int_tables_number             1
loop_
  _symmetry_equiv_pos_as_xyz
         'x, y, z' 
loop_
  _atom_site_label
  _atom_site_occupancy
  _atom_site_fract_x
  _atom_site_fract_y
  _atom_site_fract_z
  _atom_site_thermal_displace_type
  _atom_site_B_iso_or_equiv
  _atom_site_type_symbol
  _atom_site_charge
         C1        1.0000    0.35710   0.96760   0.08450   Biso      1.000     C          -0.166996           
         C2        1.0000    0.86120   0.61660   0.97700   Biso      1.000     C          0.545215  
         C3        1.0000    0.79070   0.57940   0.87530   Biso      1.000     C          -0.010697           
         C4        1.0000    0.74660   0.12920   0.88190   Biso      1.000     C          0.103499  
         C5        1.0000    0.64290   0.03240   0.91550   Biso      1.000     C          -0.166996           
         C6        1.0000    0.67910   0.25860   0.96940   Biso      1.000     C          0.084162  
         C7        1.0000    0.57600   0.16700   0.00750   Biso      1.000     C          -0.166652           
         C8        1.0000    0.55540   0.05020   0.97960   Biso      1.000     C          0.123897  
         C9        1.0000    0.70690   0.61820   0.83010   Biso      1.000     C          -0.014706           
         C10       1.0000    0.24980   0.51900   0.77360   Biso      1.000     C          0.177153  
         C11       1.0000    0.24460   0.38340   0.52300   Biso      1.000     C          0.545311  
         C12       1.0000    0.08870   0.38180   0.66990   Biso      1.000     C          -0.014251           
         C13       1.0000    0.94890   0.29040   0.63530   Biso      1.000     C          0.527231  
         C14       1.0000    0.61740   0.87080   0.61810   Biso      1.000     C          0.103043  
         C15       1.0000    0.61050   0.96760   0.58450   Biso      1.000     C          -0.166678           
         C16       1.0000    0.42050   0.74140   0.53060   Biso      1.000     C          0.084672  
         C17       1.0000    0.40900   0.83300   0.49250   Biso      1.000     C          -0.166408           
         C18       1.0000    0.21130   0.42060   0.62470   Biso      1.000     C          -0.011311           
         C19       1.0000    0.65850   0.70960   0.86470   Biso      1.000     C          0.527126  
         C20       1.0000    0.25340   0.87080   0.11810   Biso      1.000     C          0.103501  
         C21       1.0000    0.32090   0.74140   0.03060   Biso      1.000     C          0.084161  
         C22       1.0000    0.34150   0.29040   0.13530   Biso      1.000     C          0.527129  
         C23       1.0000    0.29310   0.38180   0.16990   Biso      1.000     C          -0.014709           
         C24       1.0000    0.13880   0.38340   0.02300   Biso      1.000     C          0.545211  
         C25       1.0000    0.20930   0.42060   0.12470   Biso      1.000     C          -0.010694           
         C26       1.0000    0.26920   0.51900   0.27360   Biso      1.000     C          0.17821   
         C27       1.0000    0.49480   0.05020   0.47960   Biso      1.000     C          0.123645  
         C28       1.0000    0.59100   0.16700   0.50750   Biso      1.000     C          -0.166397           
         C29       1.0000    0.57950   0.25860   0.46940   Biso      1.000     C          0.084669  
         C30       1.0000    0.38950   0.03240   0.41550   Biso      1.000     C          -0.166663           
         C31       1.0000    0.38260   0.12920   0.38190   Biso      1.000     C          0.103046  
         C32       1.0000    0.05110   0.70960   0.36470   Biso      1.000     C          0.527235  
         C33       1.0000    0.91130   0.61820   0.33010   Biso      1.000     C          -0.014252           
         C34       1.0000    0.75540   0.61660   0.47700   Biso      1.000     C          0.545308  
         C35       1.0000    0.78870   0.57940   0.37530   Biso      1.000     C          -0.01131  
         C36       1.0000    0.75020   0.48100   0.22640   Biso      1.000     C          0.177152  
         C37       1.0000    0.44460   0.94980   0.02040   Biso      1.000     C          0.123886  
         C38       1.0000    0.42400   0.83300   0.99250   Biso      1.000     C          -0.166643           
         C39       1.0000    0.50520   0.94980   0.52040   Biso      1.000     C          0.12367   
         C40       1.0000    0.73080   0.48100   0.72640   Biso      1.000     C          0.178209  
         Cd1       1.0000    0.93517   0.40610   0.85865   Biso      1.000     Cd          0.82415   
         Cd2       1.0000    0.52907   0.59390   0.64135   Biso      1.000     Cd          0.824007  
         Cd3       1.0000    0.06483   0.59390   0.14135   Biso      1.000     Cd          0.824151  
         Cd4       1.0000    0.47093   0.40610   0.35865   Biso      1.000     Cd          0.824008  
         H1        1.0000    0.66520   0.18520   0.55280   Biso      1.000     H          0.123269  
         H2        1.0000    0.27670   0.57260   0.33210   Biso      1.000     H          0.083753  
         H3        1.0000    0.80480   0.11340   0.83730   Biso      1.000     H          0.096986  
         H4        1.0000    0.63350   0.95420   0.89370   Biso      1.000     H          0.126363  
         H5        1.0000    0.68690   0.33680   0.98700   Biso      1.000     H          0.088586  
         H6        1.0000    0.52000   0.18520   0.05280   Biso      1.000     H          0.123903  
         H7        1.0000    0.29590   0.57260   0.83210   Biso      1.000     H          0.084005  
         H8        1.0000    0.67930   0.04580   0.60630   Biso      1.000     H          0.126502  
         H9        1.0000    0.35010   0.66320   0.51300   Biso      1.000     H          0.088004  
         H10       1.0000    0.69140   0.88660   0.66270   Biso      1.000     H          0.096993  
         H11       1.0000    0.72330   0.42740   0.66790   Biso      1.000     H          0.083752  
         H12       1.0000    0.19520   0.88660   0.16270   Biso      1.000     H          0.096986  
         H13       1.0000    0.36650   0.04580   0.10630   Biso      1.000     H          0.126363  
         H14       1.0000    0.31310   0.66320   0.01300   Biso      1.000     H          0.088586  
         H15       1.0000    0.48000   0.81480   0.94720   Biso      1.000     H          0.123902  
         H16       1.0000    0.70410   0.42740   0.16790   Biso      1.000     H          0.084006  
         H17       1.0000    0.30860   0.11340   0.33730   Biso      1.000     H          0.096993  
         H18       1.0000    0.32070   0.95420   0.39370   Biso      1.000     H          0.126501  
         H19       1.0000    0.64990   0.33680   0.48700   Biso      1.000     H          0.088004  
         H20       1.0000    0.33480   0.81480   0.44720   Biso      1.000     H          0.12327   
         N1        1.0000    0.88550   0.55340   0.23480   Biso      1.000     N          -0.319106           
         N2        1.0000    0.19450   0.50720   0.19090   Biso      1.000     N          -0.317968           
         N3        1.0000    0.33210   0.44660   0.26520   Biso      1.000     N          -0.319282           
         N4        1.0000    0.47430   0.24160   0.40950   Biso      1.000     N          -0.201507           
         N5        1.0000    0.68730   0.49280   0.30910   Biso      1.000     N          -0.317061           
         N6        1.0000    0.23270   0.75840   0.09050   Biso      1.000     N          -0.202257           
         N7        1.0000    0.31270   0.50720   0.69090   Biso      1.000     N          -0.317061           
         N8        1.0000    0.66790   0.55340   0.73480   Biso      1.000     N          -0.319282           
         N9        1.0000    0.52570   0.75840   0.59050   Biso      1.000     N          -0.201507           
         N10       1.0000    0.11450   0.44660   0.76520   Biso      1.000     N          -0.319107           
         N11       1.0000    0.76730   0.24160   0.90950   Biso      1.000     N          -0.202257           
         N12       1.0000    0.80550   0.49280   0.80910   Biso      1.000     N          -0.317967           
         O1        1.0000    0.29880   0.22940   0.04660   Biso      1.000     O          -0.322596           
         O2        1.0000    0.41670   0.27140   0.19180   Biso      1.000     O          -0.500426           
         O3        1.0000    0.63210   0.56060   0.49670   Biso      1.000     O          -0.531282           
         O4        1.0000    0.84710   0.70200   0.53450   Biso      1.000     O          -0.353183           
         O5        1.0000    0.06940   0.77060   0.45340   Biso      1.000     O          -0.32254  
         O6        1.0000    0.14530   0.72860   0.30820   Biso      1.000     O          -0.500507           
         O7        1.0000    0.92850   0.56060   0.99670   Biso      1.000     O          -0.530942           
         O8        1.0000    0.70120   0.77060   0.95340   Biso      1.000     O          -0.322586           
         O9        1.0000    0.58330   0.72860   0.80820   Biso      1.000     O          -0.500423           
         O10       1.0000    0.36790   0.43940   0.50330   Biso      1.000     O          -0.531283           
         O11       1.0000    0.15290   0.29800   0.46550   Biso      1.000     O          -0.353193           
         O12       1.0000    0.93060   0.22940   0.54660   Biso      1.000     O          -0.322529           
         O13       1.0000    0.85470   0.27140   0.69180   Biso      1.000     O          -0.500506           
         O14       1.0000    0.14510   0.29800   0.96550   Biso      1.000     O          -0.353355           
         O15       1.0000    0.85490   0.70200   0.03450   Biso      1.000     O          -0.353366           
         O16       1.0000    0.07150   0.43940   0.00330   Biso      1.000     O          -0.53094 