data_image0
_cell_length_a       16.764
_cell_length_b       16.764
_cell_length_c       12.284
_cell_angle_alpha    90
_cell_angle_beta     90
_cell_angle_gamma    90

_symmetry_space_group_name_H-M    "P 1"
_symmetry_int_tables_number       1

loop_
  _symmetry_equiv_pos_as_xyz
  'x, y, z'

loop_
  _atom_site_label
  _atom_site_occupancy
  _atom_site_fract_x
  _atom_site_fract_y
  _atom_site_fract_z
  _atom_site_thermal_displace_type
  _atom_site_B_iso_or_equiv
  _atom_site_type_symbol
  _atom_site_charge
  C1       1.0000 0.42226  0.85479  0.27920  Biso   1.000  C  -0.036946
  C2       1.0000 0.64521  0.42226  0.27920  Biso   1.000  C  -0.036215
  C3       1.0000 0.85479  0.07774  0.27920  Biso   1.000  C  -0.036741
  C4       1.0000 0.07774  0.64521  0.27920  Biso   1.000  C  -0.036535
  C5       1.0000 0.57774  0.14521  0.72080  Biso   1.000  C  -0.036947
  C6       1.0000 0.35479  0.57774  0.72080  Biso   1.000  C  -0.036215
  C7       1.0000 0.14521  0.92226  0.72080  Biso   1.000  C  -0.036741
  C8       1.0000 0.92226  0.35479  0.72080  Biso   1.000  C  -0.036534
  C9       1.0000 0.31419  0.78707  0.42420  Biso   1.000  C  0.088852
  C10      1.0000 0.71293  0.31419  0.42420  Biso   1.000  C  0.087947
  C11      1.0000 0.78707  0.18581  0.42420  Biso   1.000  C  0.088855
  C12      1.0000 0.18581  0.71293  0.42420  Biso   1.000  C  0.088902
  C13      1.0000 0.68581  0.21293  0.57580  Biso   1.000  C  0.088851
  C14      1.0000 0.28707  0.68581  0.57580  Biso   1.000  C  0.087946
  C15      1.0000 0.21293  0.81419  0.57580  Biso   1.000  C  0.088855
  C16      1.0000 0.81419  0.28707  0.57580  Biso   1.000  C  0.088903
  C17      1.0000 0.25000  0.75000  0.50000  Biso   1.000  C  -0.048815
  C18      1.0000 0.75000  0.25000  0.50000  Biso   1.000  C  -0.048815
  C19      1.0000 0.28821  0.83730  0.34060  Biso   1.000  C  -0.164298
  C20      1.0000 0.66270  0.28821  0.34060  Biso   1.000  C  -0.164891
  C21      1.0000 0.83730  0.21179  0.34060  Biso   1.000  C  -0.164061
  C22      1.0000 0.21179  0.66270  0.34060  Biso   1.000  C  -0.164423
  C23      1.0000 0.71179  0.16270  0.65940  Biso   1.000  C  -0.164299
  C24      1.0000 0.33730  0.71179  0.65940  Biso   1.000  C  -0.164892
  C25      1.0000 0.16270  0.78821  0.65940  Biso   1.000  C  -0.164061
  C26      1.0000 0.78821  0.33730  0.65940  Biso   1.000  C  -0.164423
  C27      1.0000 0.44760  0.80400  0.35980  Biso   1.000  C  -0.099642
  C28      1.0000 0.69600  0.44760  0.35980  Biso   1.000  C  -0.100061
  C29      1.0000 0.80400  0.05240  0.35980  Biso   1.000  C  -0.099502
  C30      1.0000 0.05240  0.69600  0.35980  Biso   1.000  C  -0.099368
  C31      1.0000 0.55240  0.19600  0.64020  Biso   1.000  C  -0.099642
  C32      1.0000 0.30400  0.55240  0.64020  Biso   1.000  C  -0.100061
  C33      1.0000 0.19600  0.94760  0.64020  Biso   1.000  C  -0.099502
  C34      1.0000 0.94760  0.30400  0.64020  Biso   1.000  C  -0.099368
  C35      1.0000 0.34176  0.87033  0.27080  Biso   1.000  C  -0.130654
  C36      1.0000 0.62967  0.34176  0.27080  Biso   1.000  C  -0.130877
  C37      1.0000 0.87033  0.15824  0.27080  Biso   1.000  C  -0.130535
  C38      1.0000 0.15824  0.62967  0.27080  Biso   1.000  C  -0.130708
  C39      1.0000 0.65824  0.12967  0.72920  Biso   1.000  C  -0.130654
  C40      1.0000 0.37033  0.65824  0.72920  Biso   1.000  C  -0.130877
  C41      1.0000 0.12967  0.84176  0.72920  Biso   1.000  C  -0.130534
  C42      1.0000 0.84176  0.37033  0.72920  Biso   1.000  C  -0.130709
  C43      1.0000 0.48090  0.89220  0.19980  Biso   1.000  C  0.575782
  C44      1.0000 0.60780  0.48090  0.19980  Biso   1.000  C  0.574704
  C45      1.0000 0.89220  0.01910  0.19980  Biso   1.000  C  0.575907
  C46      1.0000 0.01910  0.60780  0.19980  Biso   1.000  C  0.575814
  C47      1.0000 0.51910  0.10780  0.80020  Biso   1.000  C  0.575783
  C48      1.0000 0.39220  0.51910  0.80020  Biso   1.000  C  0.574704
  C49      1.0000 0.10780  0.98090  0.80020  Biso   1.000  C  0.575907
  C50      1.0000 0.98090  0.39220  0.80020  Biso   1.000  C  0.575814
  C51      1.0000 0.32930  0.96490  0.93410  Biso   1.000  C  -0.043088
  C52      1.0000 0.53510  0.32930  0.93410  Biso   1.000  C  -0.044683
  C53      1.0000 0.96490  0.17070  0.93410  Biso   1.000  C  -0.043084
  C54      1.0000 0.17070  0.53510  0.93410  Biso   1.000  C  -0.043087
  C55      1.0000 0.67070  0.03510  0.06590  Biso   1.000  C  -0.043088
  C56      1.0000 0.46490  0.67070  0.06590  Biso   1.000  C  -0.044684
  C57      1.0000 0.03510  0.82930  0.06590  Biso   1.000  C  -0.043084
  C58      1.0000 0.82930  0.46490  0.06590  Biso   1.000  C  -0.043087
  C59      1.0000 0.39410  0.77010  0.43170  Biso   1.000  C  -0.158964
  C60      1.0000 0.72990  0.39410  0.43170  Biso   1.000  C  -0.159600
  C61      1.0000 0.77010  0.10590  0.43170  Biso   1.000  C  -0.159247
  C62      1.0000 0.10590  0.72990  0.43170  Biso   1.000  C  -0.159108
  C63      1.0000 0.60590  0.22990  0.56830  Biso   1.000  C  -0.158964
  C64      1.0000 0.27010  0.60590  0.56830  Biso   1.000  C  -0.159600
  C65      1.0000 0.22990  0.89410  0.56830  Biso   1.000  C  -0.159248
  C66      1.0000 0.89410  0.27010  0.56830  Biso   1.000  C  -0.159107
  C67      1.0000 0.36200  0.90820  0.84890  Biso   1.000  C  -0.211358
  C68      1.0000 0.59180  0.36200  0.84890  Biso   1.000  C  -0.210868
  C69      1.0000 0.90820  0.13800  0.84890  Biso   1.000  C  -0.211414
  C70      1.0000 0.13800  0.59180  0.84890  Biso   1.000  C  -0.211325
  C71      1.0000 0.63800  0.09180  0.15110  Biso   1.000  C  -0.211357
  C72      1.0000 0.40820  0.63800  0.15110  Biso   1.000  C  -0.210867
  C73      1.0000 0.09180  0.86200  0.15110  Biso   1.000  C  -0.211414
  C74      1.0000 0.86200  0.40820  0.15110  Biso   1.000  C  -0.211324
  C75      1.0000 0.43240  0.85890  0.88260  Biso   1.000  C  -0.054178
  C76      1.0000 0.64110  0.43240  0.88260  Biso   1.000  C  -0.055519
  C77      1.0000 0.85890  0.06760  0.88260  Biso   1.000  C  -0.054209
  C78      1.0000 0.06760  0.64110  0.88260  Biso   1.000  C  -0.054213
  C79      1.0000 0.56760  0.14110  0.11740  Biso   1.000  C  -0.054178
  C80      1.0000 0.35890  0.56760  0.11740  Biso   1.000  C  -0.055520
  C81      1.0000 0.14110  0.93240  0.11740  Biso   1.000  C  -0.054208
  C82      1.0000 0.93240  0.35890  0.11740  Biso   1.000  C  -0.054213
  C83      1.0000 0.35640  0.08530  0.04220  Biso   1.000  C  -0.078358
  C84      1.0000 0.41470  0.35640  0.04220  Biso   1.000  C  -0.079142
  C85      1.0000 0.08530  0.14360  0.04220  Biso   1.000  C  -0.078361
  C86      1.0000 0.14360  0.41470  0.04220  Biso   1.000  C  -0.078413
  C87      1.0000 0.64360  0.91470  0.95780  Biso   1.000  C  -0.078358
  C88      1.0000 0.58530  0.64360  0.95780  Biso   1.000  C  -0.079142
  C89      1.0000 0.91470  0.85640  0.95780  Biso   1.000  C  -0.078362
  C90      1.0000 0.85640  0.58530  0.95780  Biso   1.000  C  -0.078414
  C91      1.0000 0.57620  0.85920  0.92730  Biso   1.000  C  -0.090351
  C92      1.0000 0.64080  0.57620  0.92730  Biso   1.000  C  -0.090906
  C93      1.0000 0.85920  0.92380  0.92730  Biso   1.000  C  -0.090365
  C94      1.0000 0.92380  0.64080  0.92730  Biso   1.000  C  -0.090338
  C95      1.0000 0.42380  0.14080  0.07270  Biso   1.000  C  -0.090351
  C96      1.0000 0.35920  0.42380  0.07270  Biso   1.000  C  -0.090906
  C97      1.0000 0.14080  0.07620  0.07270  Biso   1.000  C  -0.090365
  C98      1.0000 0.07620  0.35920  0.07270  Biso   1.000  C  -0.090338
  H1       1.0000 0.38740  0.05920  0.89540  Biso   1.000  H  0.258326
  H2       1.0000 0.44080  0.38740  0.89540  Biso   1.000  H  0.258451
  H3       1.0000 0.05920  0.11260  0.89540  Biso   1.000  H  0.258336
  H4       1.0000 0.11260  0.44080  0.89540  Biso   1.000  H  0.258343
  H5       1.0000 0.61260  0.94080  0.10460  Biso   1.000  H  0.258326
  H6       1.0000 0.55920  0.61260  0.10460  Biso   1.000  H  0.258451
  H7       1.0000 0.94080  0.88740  0.10460  Biso   1.000  H  0.258336
  H8       1.0000 0.88740  0.55920  0.10460  Biso   1.000  H  0.258343
  H9       1.0000 0.23410  0.84820  0.33270  Biso   1.000  H  0.107218
  H10      1.0000 0.65180  0.23410  0.33270  Biso   1.000  H  0.106893
  H11      1.0000 0.84820  0.26590  0.33270  Biso   1.000  H  0.107282
  H12      1.0000 0.26590  0.65180  0.33270  Biso   1.000  H  0.107000
  H13      1.0000 0.76590  0.15180  0.66730  Biso   1.000  H  0.107217
  H14      1.0000 0.34820  0.76590  0.66730  Biso   1.000  H  0.106893
  H15      1.0000 0.15180  0.73410  0.66730  Biso   1.000  H  0.107282
  H16      1.0000 0.73410  0.34820  0.66730  Biso   1.000  H  0.107000
  H17      1.0000 0.50170  0.79240  0.36620  Biso   1.000  H  0.117100
  H18      1.0000 0.70760  0.50170  0.36620  Biso   1.000  H  0.116874
  H19      1.0000 0.79240  0.99830  0.36620  Biso   1.000  H  0.117033
  H20      1.0000 0.99830  0.70760  0.36620  Biso   1.000  H  0.117051
  H21      1.0000 0.49830  0.20760  0.63380  Biso   1.000  H  0.117101
  H22      1.0000 0.29240  0.49830  0.63380  Biso   1.000  H  0.116874
  H23      1.0000 0.20760  0.00170  0.63380  Biso   1.000  H  0.117033
  H24      1.0000 0.00170  0.29240  0.63380  Biso   1.000  H  0.117051
  H25      1.0000 0.32370  0.90420  0.21610  Biso   1.000  H  0.094633
  H26      1.0000 0.59580  0.32370  0.21610  Biso   1.000  H  0.094131
  H27      1.0000 0.90420  0.17630  0.21610  Biso   1.000  H  0.094654
  H28      1.0000 0.17630  0.59580  0.21610  Biso   1.000  H  0.094514
  H29      1.0000 0.67630  0.09580  0.78390  Biso   1.000  H  0.094633
  H30      1.0000 0.40420  0.67630  0.78390  Biso   1.000  H  0.094131
  H31      1.0000 0.09580  0.82370  0.78390  Biso   1.000  H  0.094654
  H32      1.0000 0.82370  0.40420  0.78390  Biso   1.000  H  0.094514
  H33      1.0000 0.51700  0.92640  0.82650  Biso   1.000  H  0.261304
  H34      1.0000 0.57360  0.51700  0.82650  Biso   1.000  H  0.261498
  H35      1.0000 0.92640  0.98300  0.82650  Biso   1.000  H  0.261257
  H36      1.0000 0.98300  0.57360  0.82650  Biso   1.000  H  0.261134
  H37      1.0000 0.48300  0.07360  0.17350  Biso   1.000  H  0.261303
  H38      1.0000 0.42640  0.48300  0.17350  Biso   1.000  H  0.261498
  H39      1.0000 0.07360  0.01700  0.17350  Biso   1.000  H  0.261257
  H40      1.0000 0.01700  0.42640  0.17350  Biso   1.000  H  0.261134
  H41      1.0000 0.27910  0.98670  0.90870  Biso   1.000  H  0.083347
  H42      1.0000 0.51330  0.27910  0.90870  Biso   1.000  H  0.084996
  H43      1.0000 0.98670  0.22090  0.90870  Biso   1.000  H  0.083354
  H44      1.0000 0.22090  0.51330  0.90870  Biso   1.000  H  0.083372
  H45      1.0000 0.72090  0.01330  0.09130  Biso   1.000  H  0.083347
  H46      1.0000 0.48670  0.72090  0.09130  Biso   1.000  H  0.084996
  H47      1.0000 0.01330  0.77910  0.09130  Biso   1.000  H  0.083354
  H48      1.0000 0.77910  0.48670  0.09130  Biso   1.000  H  0.083372
  H49      1.0000 0.31890  0.93550  0.00060  Biso   1.000  H  0.088042
  H50      1.0000 0.56450  0.31890  0.00060  Biso   1.000  H  0.089159
  H51      1.0000 0.93550  0.18110  0.00060  Biso   1.000  H  0.088077
  H52      1.0000 0.18110  0.56450  0.00060  Biso   1.000  H  0.087793
  H53      1.0000 0.68110  0.06450  0.99940  Biso   1.000  H  0.088042
  H54      1.0000 0.43550  0.68110  0.99940  Biso   1.000  H  0.089159
  H55      1.0000 0.06450  0.81890  0.99940  Biso   1.000  H  0.088077
  H56      1.0000 0.81890  0.43550  0.99940  Biso   1.000  H  0.087792
  H57      1.0000 0.41230  0.73550  0.48540  Biso   1.000  H  0.111133
  H58      1.0000 0.76450  0.41230  0.48540  Biso   1.000  H  0.110655
  H59      1.0000 0.73550  0.08770  0.48540  Biso   1.000  H  0.110919
  H60      1.0000 0.08770  0.76450  0.48540  Biso   1.000  H  0.110949
  H61      1.0000 0.58770  0.26450  0.51460  Biso   1.000  H  0.111133
  H62      1.0000 0.23550  0.58770  0.51460  Biso   1.000  H  0.110654
  H63      1.0000 0.26450  0.91230  0.51460  Biso   1.000  H  0.110919
  H64      1.0000 0.91230  0.23550  0.51460  Biso   1.000  H  0.110949
  H65      1.0000 0.31940  0.87230  0.82710  Biso   1.000  H  0.117779
  H66      1.0000 0.62770  0.31940  0.82710  Biso   1.000  H  0.118126
  H67      1.0000 0.87230  0.18060  0.82710  Biso   1.000  H  0.117637
  H68      1.0000 0.18060  0.62770  0.82710  Biso   1.000  H  0.117709
  H69      1.0000 0.68060  0.12770  0.17290  Biso   1.000  H  0.117779
  H70      1.0000 0.37230  0.68060  0.17290  Biso   1.000  H  0.118125
  H71      1.0000 0.12770  0.81940  0.17290  Biso   1.000  H  0.117637
  H72      1.0000 0.81940  0.37230  0.17290  Biso   1.000  H  0.117709
  H73      1.0000 0.37690  0.93910  0.78530  Biso   1.000  H  0.115419
  H74      1.0000 0.56090  0.37690  0.78530  Biso   1.000  H  0.115660
  H75      1.0000 0.93910  0.12310  0.78530  Biso   1.000  H  0.115394
  H76      1.0000 0.12310  0.56090  0.78530  Biso   1.000  H  0.115422
  H77      1.0000 0.62310  0.06090  0.21470  Biso   1.000  H  0.115418
  H78      1.0000 0.43910  0.62310  0.21470  Biso   1.000  H  0.115660
  H79      1.0000 0.06090  0.87690  0.21470  Biso   1.000  H  0.115394
  H80      1.0000 0.87690  0.43910  0.21470  Biso   1.000  H  0.115422
  H81      1.0000 0.44090  0.81710  0.82910  Biso   1.000  H  0.082243
  H82      1.0000 0.68290  0.44090  0.82910  Biso   1.000  H  0.083577
  H83      1.0000 0.81710  0.05910  0.82910  Biso   1.000  H  0.082086
  H84      1.0000 0.05910  0.68290  0.82910  Biso   1.000  H  0.082004
  H85      1.0000 0.55910  0.18290  0.17090  Biso   1.000  H  0.082243
  H86      1.0000 0.31710  0.55910  0.17090  Biso   1.000  H  0.083577
  H87      1.0000 0.18290  0.94090  0.17090  Biso   1.000  H  0.082086
  H88      1.0000 0.94090  0.31710  0.17090  Biso   1.000  H  0.082003
  H89      1.0000 0.42080  0.83340  0.95170  Biso   1.000  H  0.098580
  H90      1.0000 0.66660  0.42080  0.95170  Biso   1.000  H  0.099871
  H91      1.0000 0.83340  0.07920  0.95170  Biso   1.000  H  0.098718
  H92      1.0000 0.07920  0.66660  0.95170  Biso   1.000  H  0.098622
  H93      1.0000 0.57920  0.16660  0.04830  Biso   1.000  H  0.098580
  H94      1.0000 0.33340  0.57920  0.04830  Biso   1.000  H  0.099871
  H95      1.0000 0.16660  0.92080  0.04830  Biso   1.000  H  0.098718
  H96      1.0000 0.92080  0.33340  0.04830  Biso   1.000  H  0.098622
  H97      1.0000 0.33920  0.05560  0.10580  Biso   1.000  H  0.096313
  H98      1.0000 0.44440  0.33920  0.10580  Biso   1.000  H  0.096904
  H99      1.0000 0.05560  0.16080  0.10580  Biso   1.000  H  0.096268
  H100     1.0000 0.16080  0.44440  0.10580  Biso   1.000  H  0.096002
  H101     1.0000 0.66080  0.94440  0.89420  Biso   1.000  H  0.096313
  H102     1.0000 0.55560  0.66080  0.89420  Biso   1.000  H  0.096904
  H103     1.0000 0.94440  0.83920  0.89420  Biso   1.000  H  0.096269
  H104     1.0000 0.83920  0.55560  0.89420  Biso   1.000  H  0.096002
  H105     1.0000 0.31140  0.11600  0.01550  Biso   1.000  H  0.091478
  H106     1.0000 0.38400  0.31140  0.01550  Biso   1.000  H  0.092461
  H107     1.0000 0.11600  0.18860  0.01550  Biso   1.000  H  0.091463
  H108     1.0000 0.18860  0.38400  0.01550  Biso   1.000  H  0.091152
  H109     1.0000 0.68860  0.88400  0.98450  Biso   1.000  H  0.091478
  H110     1.0000 0.61600  0.68860  0.98450  Biso   1.000  H  0.092461
  H111     1.0000 0.88400  0.81140  0.98450  Biso   1.000  H  0.091463
  H112     1.0000 0.81140  0.61600  0.98450  Biso   1.000  H  0.091152
  H113     1.0000 0.56250  0.82600  0.98920  Biso   1.000  H  0.104574
  H114     1.0000 0.67400  0.56250  0.98920  Biso   1.000  H  0.105571
  H115     1.0000 0.82600  0.93750  0.98920  Biso   1.000  H  0.104810
  H116     1.0000 0.93750  0.67400  0.98920  Biso   1.000  H  0.104806
  H117     1.0000 0.43750  0.17400  0.01080  Biso   1.000  H  0.104575
  H118     1.0000 0.32600  0.43750  0.01080  Biso   1.000  H  0.105571
  H119     1.0000 0.17400  0.06250  0.01080  Biso   1.000  H  0.104810
  H120     1.0000 0.06250  0.32600  0.01080  Biso   1.000  H  0.104806
  H121     1.0000 0.59300  0.82460  0.86820  Biso   1.000  H  0.087462
  H122     1.0000 0.67540  0.59300  0.86820  Biso   1.000  H  0.088306
  H123     1.0000 0.82460  0.90700  0.86820  Biso   1.000  H  0.087480
  H124     1.0000 0.90700  0.67540  0.86820  Biso   1.000  H  0.087331
  H125     1.0000 0.40700  0.17540  0.13180  Biso   1.000  H  0.087462
  H126     1.0000 0.32460  0.40700  0.13180  Biso   1.000  H  0.088306
  H127     1.0000 0.17540  0.09300  0.13180  Biso   1.000  H  0.087480
  H128     1.0000 0.09300  0.32460  0.13180  Biso   1.000  H  0.087330
  N1       1.0000 0.38380  0.03002  0.95770  Biso   1.000  N  -0.323818
  N2       1.0000 0.46998  0.38380  0.95770  Biso   1.000  N  -0.307960
  N3       1.0000 0.03002  0.11620  0.95770  Biso   1.000  N  -0.323748
  N4       1.0000 0.11620  0.46998  0.95770  Biso   1.000  N  -0.323911
  N5       1.0000 0.61620  0.96998  0.04230  Biso   1.000  N  -0.323818
  N6       1.0000 0.53002  0.61620  0.04230  Biso   1.000  N  -0.307960
  N7       1.0000 0.96998  0.88380  0.04230  Biso   1.000  N  -0.323747
  N8       1.0000 0.88380  0.53002  0.04230  Biso   1.000  N  -0.323911
  N9       1.0000 0.50589  0.90579  0.89330  Biso   1.000  N  -0.307599
  N10      1.0000 0.59421  0.50589  0.89330  Biso   1.000  N  -0.293709
  N11      1.0000 0.90579  0.99411  0.89330  Biso   1.000  N  -0.307519
  N12      1.0000 0.99411  0.59421  0.89330  Biso   1.000  N  -0.307624
  N13      1.0000 0.49411  0.09421  0.10670  Biso   1.000  N  -0.307599
  N14      1.0000 0.40579  0.49411  0.10670  Biso   1.000  N  -0.293709
  N15      1.0000 0.09421  0.00589  0.10670  Biso   1.000  N  -0.307519
  N16      1.0000 0.00589  0.40579  0.10670  Biso   1.000  N  -0.307624
  Ni1      1.0000 0.50000  0.00000  0.00000  Biso   1.000  Ni  0.610673
  Ni2      1.0000 0.50000  0.50000  0.00000  Biso   1.000  Ni  0.571057
  Ni3      1.0000 0.00000  0.00000  0.00000  Biso   1.000  Ni  0.610763
  Ni4      1.0000 0.00000  0.50000  0.00000  Biso   1.000  Ni  0.610351
  O1       1.0000 0.45204  0.92742  0.12254  Biso   1.000  O  -0.572326
  O2       1.0000 0.57258  0.45204  0.12254  Biso   1.000  O  -0.577720
  O3       1.0000 0.92742  0.04796  0.12254  Biso   1.000  O  -0.572284
  O4       1.0000 0.04796  0.57258  0.12254  Biso   1.000  O  -0.572405
  O5       1.0000 0.54796  0.07258  0.87746  Biso   1.000  O  -0.572327
  O6       1.0000 0.42742  0.54796  0.87746  Biso   1.000  O  -0.577720
  O7       1.0000 0.07258  0.95204  0.87746  Biso   1.000  O  -0.572284
  O8       1.0000 0.95204  0.42742  0.87746  Biso   1.000  O  -0.572405
  O9       1.0000 0.55225  0.88420  0.22050  Biso   1.000  O  -0.601341
  O10      1.0000 0.61580  0.55225  0.22050  Biso   1.000  O  -0.605113
  O11      1.0000 0.88420  0.94775  0.22050  Biso   1.000  O  -0.601363
  O12      1.0000 0.94775  0.61580  0.22050  Biso   1.000  O  -0.601344
  O13      1.0000 0.44775  0.11580  0.77950  Biso   1.000  O  -0.601342
  O14      1.0000 0.38420  0.44775  0.77950  Biso   1.000  O  -0.605113
  O15      1.0000 0.11580  0.05225  0.77950  Biso   1.000  O  -0.601363
  O16      1.0000 0.05225  0.38420  0.77950  Biso   1.000  O  -0.601344
