data_image0
_cell_length_a       13.4761
_cell_length_b       13.4761
_cell_length_c       27.254
_cell_angle_alpha    90
_cell_angle_beta     90
_cell_angle_gamma    90

_symmetry_space_group_name_H-M    "P 1"
_symmetry_int_tables_number       1

loop_
  _symmetry_equiv_pos_as_xyz
  'x, y, z'

loop_
  _atom_site_label
  _atom_site_occupancy
  _atom_site_fract_x
  _atom_site_fract_y
  _atom_site_fract_z
  _atom_site_thermal_displace_type
  _atom_site_B_iso_or_equiv
  _atom_site_type_symbol
  _atom_site_charge
  C1       1.0000 0.08830  0.98520  0.85340  Biso   1.000  C  0.576959
  C2       1.0000 0.51480  0.08830  0.85340  Biso   1.000  C  0.576959
  C3       1.0000 0.41170  0.51480  0.85340  Biso   1.000  C  0.576959
  C4       1.0000 0.98520  0.41170  0.85340  Biso   1.000  C  0.576959
  C5       1.0000 0.58830  0.01480  0.64660  Biso   1.000  C  0.576959
  C6       1.0000 0.48520  0.58830  0.64660  Biso   1.000  C  0.576959
  C7       1.0000 0.91170  0.48520  0.64660  Biso   1.000  C  0.576959
  C8       1.0000 0.01480  0.91170  0.64660  Biso   1.000  C  0.576959
  C9       1.0000 0.91170  0.01480  0.14660  Biso   1.000  C  0.576959
  C10      1.0000 0.48520  0.91170  0.14660  Biso   1.000  C  0.576959
  C11      1.0000 0.58830  0.48520  0.14660  Biso   1.000  C  0.576959
  C12      1.0000 0.01480  0.58830  0.14660  Biso   1.000  C  0.576959
  C13      1.0000 0.41170  0.98520  0.35340  Biso   1.000  C  0.576959
  C14      1.0000 0.51480  0.41170  0.35340  Biso   1.000  C  0.576959
  C15      1.0000 0.08830  0.51480  0.35340  Biso   1.000  C  0.576959
  C16      1.0000 0.98520  0.08830  0.35340  Biso   1.000  C  0.576959
  C17      1.0000 0.06800  0.96640  0.79990  Biso   1.000  C  -0.017156
  C18      1.0000 0.53360  0.06800  0.79990  Biso   1.000  C  -0.017156
  C19      1.0000 0.43200  0.53360  0.79990  Biso   1.000  C  -0.017156
  C20      1.0000 0.96640  0.43200  0.79990  Biso   1.000  C  -0.017156
  C21      1.0000 0.56800  0.03360  0.70010  Biso   1.000  C  -0.017156
  C22      1.0000 0.46640  0.56800  0.70010  Biso   1.000  C  -0.017156
  C23      1.0000 0.93200  0.46640  0.70010  Biso   1.000  C  -0.017156
  C24      1.0000 0.03360  0.93200  0.70010  Biso   1.000  C  -0.017156
  C25      1.0000 0.93200  0.03360  0.20010  Biso   1.000  C  -0.017156
  C26      1.0000 0.46640  0.93200  0.20010  Biso   1.000  C  -0.017156
  C27      1.0000 0.56800  0.46640  0.20010  Biso   1.000  C  -0.017156
  C28      1.0000 0.03360  0.56800  0.20010  Biso   1.000  C  -0.017156
  C29      1.0000 0.43200  0.96640  0.29990  Biso   1.000  C  -0.017156
  C30      1.0000 0.53360  0.43200  0.29990  Biso   1.000  C  -0.017156
  C31      1.0000 0.06800  0.53360  0.29990  Biso   1.000  C  -0.017156
  C32      1.0000 0.96640  0.06800  0.29990  Biso   1.000  C  -0.017156
  C33      1.0000 0.11840  0.02030  0.76430  Biso   1.000  C  -0.109080
  C34      1.0000 0.47970  0.11840  0.76430  Biso   1.000  C  -0.109080
  C35      1.0000 0.38160  0.47970  0.76430  Biso   1.000  C  -0.109080
  C36      1.0000 0.02030  0.38160  0.76430  Biso   1.000  C  -0.109080
  C37      1.0000 0.61840  0.97970  0.73570  Biso   1.000  C  -0.109080
  C38      1.0000 0.52030  0.61840  0.73570  Biso   1.000  C  -0.109080
  C39      1.0000 0.88160  0.52030  0.73570  Biso   1.000  C  -0.109080
  C40      1.0000 0.97970  0.88160  0.73570  Biso   1.000  C  -0.109080
  C41      1.0000 0.88160  0.97970  0.23570  Biso   1.000  C  -0.109080
  C42      1.0000 0.52030  0.88160  0.23570  Biso   1.000  C  -0.109080
  C43      1.0000 0.61840  0.52030  0.23570  Biso   1.000  C  -0.109080
  C44      1.0000 0.97970  0.61840  0.23570  Biso   1.000  C  -0.109080
  C45      1.0000 0.38160  0.02030  0.26430  Biso   1.000  C  -0.109080
  C46      1.0000 0.47970  0.38160  0.26430  Biso   1.000  C  -0.109080
  C47      1.0000 0.11840  0.47970  0.26430  Biso   1.000  C  -0.109080
  C48      1.0000 0.02030  0.11840  0.26430  Biso   1.000  C  -0.109079
  C49      1.0000 0.99920  0.89700  0.78490  Biso   1.000  C  -0.110938
  C50      1.0000 0.60300  0.99920  0.78490  Biso   1.000  C  -0.110938
  C51      1.0000 0.50080  0.60300  0.78490  Biso   1.000  C  -0.110938
  C52      1.0000 0.89700  0.50080  0.78490  Biso   1.000  C  -0.110938
  C53      1.0000 0.49920  0.10300  0.71510  Biso   1.000  C  -0.110938
  C54      1.0000 0.39700  0.49920  0.71510  Biso   1.000  C  -0.110938
  C55      1.0000 0.00080  0.39700  0.71510  Biso   1.000  C  -0.110938
  C56      1.0000 0.10300  0.00080  0.71510  Biso   1.000  C  -0.110938
  C57      1.0000 0.00080  0.10300  0.21510  Biso   1.000  C  -0.110938
  C58      1.0000 0.39700  0.00080  0.21510  Biso   1.000  C  -0.110938
  C59      1.0000 0.49920  0.39700  0.21510  Biso   1.000  C  -0.110938
  C60      1.0000 0.10300  0.49920  0.21510  Biso   1.000  C  -0.110938
  C61      1.0000 0.50080  0.89700  0.28490  Biso   1.000  C  -0.110938
  C62      1.0000 0.60300  0.50080  0.28490  Biso   1.000  C  -0.110938
  C63      1.0000 0.99920  0.60300  0.28490  Biso   1.000  C  -0.110938
  C64      1.0000 0.89700  0.99920  0.28490  Biso   1.000  C  -0.110938
  C65      1.0000 0.30590  0.03840  0.94404  Biso   1.000  C  0.174813
  C66      1.0000 0.46160  0.30590  0.94404  Biso   1.000  C  0.174813
  C67      1.0000 0.19410  0.46160  0.94404  Biso   1.000  C  0.174813
  C68      1.0000 0.03840  0.19410  0.94404  Biso   1.000  C  0.174813
  C69      1.0000 0.80590  0.96160  0.55596  Biso   1.000  C  0.174813
  C70      1.0000 0.53840  0.80590  0.55596  Biso   1.000  C  0.174813
  C71      1.0000 0.69410  0.53840  0.55596  Biso   1.000  C  0.174813
  C72      1.0000 0.96160  0.69410  0.55596  Biso   1.000  C  0.174813
  C73      1.0000 0.69410  0.96160  0.05596  Biso   1.000  C  0.174813
  C74      1.0000 0.53840  0.69410  0.05596  Biso   1.000  C  0.174813
  C75      1.0000 0.80590  0.53840  0.05596  Biso   1.000  C  0.174813
  C76      1.0000 0.96160  0.80590  0.05596  Biso   1.000  C  0.174813
  C77      1.0000 0.19410  0.03840  0.44404  Biso   1.000  C  0.174813
  C78      1.0000 0.46160  0.19410  0.44404  Biso   1.000  C  0.174813
  C79      1.0000 0.30590  0.46160  0.44404  Biso   1.000  C  0.174813
  C80      1.0000 0.03840  0.30590  0.44404  Biso   1.000  C  0.174813
  C81      1.0000 0.28200  0.93810  0.00135  Biso   1.000  C  0.132441
  C82      1.0000 0.56190  0.28200  0.00135  Biso   1.000  C  0.132441
  C83      1.0000 0.21800  0.56190  0.00135  Biso   1.000  C  0.132441
  C84      1.0000 0.93810  0.21800  0.00135  Biso   1.000  C  0.132441
  C85      1.0000 0.78200  0.06190  0.49865  Biso   1.000  C  0.132441
  C86      1.0000 0.43810  0.78200  0.49865  Biso   1.000  C  0.132441
  C87      1.0000 0.71800  0.43810  0.49865  Biso   1.000  C  0.132441
  C88      1.0000 0.06190  0.71800  0.49865  Biso   1.000  C  0.132441
  C89      1.0000 0.71800  0.06190  0.99865  Biso   1.000  C  0.132441
  C90      1.0000 0.43810  0.71800  0.99865  Biso   1.000  C  0.132441
  C91      1.0000 0.78200  0.43810  0.99865  Biso   1.000  C  0.132441
  C92      1.0000 0.06190  0.78200  0.99865  Biso   1.000  C  0.132441
  C93      1.0000 0.21800  0.93810  0.50135  Biso   1.000  C  0.132441
  C94      1.0000 0.56190  0.21800  0.50135  Biso   1.000  C  0.132441
  C95      1.0000 0.28200  0.56190  0.50135  Biso   1.000  C  0.132441
  C96      1.0000 0.93810  0.28200  0.50135  Biso   1.000  C  0.132441
  H1       1.0000 0.16270  0.06980  0.77360  Biso   1.000  H  0.119148
  H2       1.0000 0.43020  0.16270  0.77360  Biso   1.000  H  0.119148
  H3       1.0000 0.33730  0.43020  0.77360  Biso   1.000  H  0.119148
  H4       1.0000 0.06980  0.33730  0.77360  Biso   1.000  H  0.119148
  H5       1.0000 0.66270  0.93020  0.72640  Biso   1.000  H  0.119148
  H6       1.0000 0.56980  0.66270  0.72640  Biso   1.000  H  0.119148
  H7       1.0000 0.83730  0.56980  0.72640  Biso   1.000  H  0.119148
  H8       1.0000 0.93020  0.83730  0.72640  Biso   1.000  H  0.119148
  H9       1.0000 0.83730  0.93020  0.22640  Biso   1.000  H  0.119148
  H10      1.0000 0.56980  0.83730  0.22640  Biso   1.000  H  0.119148
  H11      1.0000 0.66270  0.56980  0.22640  Biso   1.000  H  0.119148
  H12      1.0000 0.93020  0.66270  0.22640  Biso   1.000  H  0.119148
  H13      1.0000 0.33730  0.06980  0.27360  Biso   1.000  H  0.119148
  H14      1.0000 0.43020  0.33730  0.27360  Biso   1.000  H  0.119148
  H15      1.0000 0.16270  0.43020  0.27360  Biso   1.000  H  0.119148
  H16      1.0000 0.06980  0.16270  0.27360  Biso   1.000  H  0.119148
  H17      1.0000 0.96540  0.85990  0.80830  Biso   1.000  H  0.114831
  H18      1.0000 0.64010  0.96540  0.80830  Biso   1.000  H  0.114831
  H19      1.0000 0.53460  0.64010  0.80830  Biso   1.000  H  0.114831
  H20      1.0000 0.85990  0.53460  0.80830  Biso   1.000  H  0.114831
  H21      1.0000 0.46540  0.14010  0.69170  Biso   1.000  H  0.114831
  H22      1.0000 0.35990  0.46540  0.69170  Biso   1.000  H  0.114831
  H23      1.0000 0.03460  0.35990  0.69170  Biso   1.000  H  0.114831
  H24      1.0000 0.14010  0.03460  0.69170  Biso   1.000  H  0.114831
  H25      1.0000 0.03460  0.14010  0.19170  Biso   1.000  H  0.114831
  H26      1.0000 0.35990  0.03460  0.19170  Biso   1.000  H  0.114831
  H27      1.0000 0.46540  0.35990  0.19170  Biso   1.000  H  0.114831
  H28      1.0000 0.14010  0.46540  0.19170  Biso   1.000  H  0.114831
  H29      1.0000 0.53460  0.85990  0.30830  Biso   1.000  H  0.114831
  H30      1.0000 0.64010  0.53460  0.30830  Biso   1.000  H  0.114831
  H31      1.0000 0.96540  0.64010  0.30830  Biso   1.000  H  0.114831
  H32      1.0000 0.85990  0.96540  0.30830  Biso   1.000  H  0.114831
  H33      1.0000 0.29600  0.07860  0.91670  Biso   1.000  H  0.123571
  H34      1.0000 0.42140  0.29600  0.91670  Biso   1.000  H  0.123571
  H35      1.0000 0.20400  0.42140  0.91670  Biso   1.000  H  0.123571
  H36      1.0000 0.07860  0.20400  0.91670  Biso   1.000  H  0.123571
  H37      1.0000 0.79600  0.92140  0.58330  Biso   1.000  H  0.123571
  H38      1.0000 0.57860  0.79600  0.58330  Biso   1.000  H  0.123571
  H39      1.0000 0.70400  0.57860  0.58330  Biso   1.000  H  0.123571
  H40      1.0000 0.92140  0.70400  0.58330  Biso   1.000  H  0.123571
  H41      1.0000 0.70400  0.92140  0.08330  Biso   1.000  H  0.123571
  H42      1.0000 0.57860  0.70400  0.08330  Biso   1.000  H  0.123571
  H43      1.0000 0.79600  0.57860  0.08330  Biso   1.000  H  0.123571
  H44      1.0000 0.92140  0.79600  0.08330  Biso   1.000  H  0.123571
  H45      1.0000 0.20400  0.07860  0.41670  Biso   1.000  H  0.123571
  H46      1.0000 0.42140  0.20400  0.41670  Biso   1.000  H  0.123571
  H47      1.0000 0.29600  0.42140  0.41670  Biso   1.000  H  0.123571
  H48      1.0000 0.07860  0.29600  0.41670  Biso   1.000  H  0.123571
  H49      1.0000 0.25150  0.89380  0.02270  Biso   1.000  H  0.101758
  H50      1.0000 0.60620  0.25150  0.02270  Biso   1.000  H  0.101758
  H51      1.0000 0.24850  0.60620  0.02270  Biso   1.000  H  0.101758
  H52      1.0000 0.89380  0.24850  0.02270  Biso   1.000  H  0.101758
  H53      1.0000 0.75150  0.10620  0.47730  Biso   1.000  H  0.101758
  H54      1.0000 0.39380  0.75150  0.47730  Biso   1.000  H  0.101758
  H55      1.0000 0.74850  0.39380  0.47730  Biso   1.000  H  0.101758
  H56      1.0000 0.10620  0.74850  0.47730  Biso   1.000  H  0.101758
  H57      1.0000 0.74850  0.10620  0.97730  Biso   1.000  H  0.101758
  H58      1.0000 0.39380  0.74850  0.97730  Biso   1.000  H  0.101758
  H59      1.0000 0.75150  0.39380  0.97730  Biso   1.000  H  0.101758
  H60      1.0000 0.10620  0.75150  0.97730  Biso   1.000  H  0.101759
  H61      1.0000 0.24850  0.89380  0.52270  Biso   1.000  H  0.101758
  H62      1.0000 0.60620  0.24850  0.52270  Biso   1.000  H  0.101758
  H63      1.0000 0.25150  0.60620  0.52270  Biso   1.000  H  0.101759
  H64      1.0000 0.89380  0.25150  0.52270  Biso   1.000  H  0.101758
  N1       1.0000 0.23440  0.98550  0.96543  Biso   1.000  N  -0.296312
  N2       1.0000 0.51450  0.23440  0.96543  Biso   1.000  N  -0.296312
  N3       1.0000 0.26560  0.51450  0.96543  Biso   1.000  N  -0.296312
  N4       1.0000 0.98550  0.26560  0.96543  Biso   1.000  N  -0.296312
  N5       1.0000 0.73440  0.01450  0.53457  Biso   1.000  N  -0.296312
  N6       1.0000 0.48550  0.73440  0.53457  Biso   1.000  N  -0.296312
  N7       1.0000 0.76560  0.48550  0.53457  Biso   1.000  N  -0.296312
  N8       1.0000 0.01450  0.76560  0.53457  Biso   1.000  N  -0.296312
  N9       1.0000 0.76560  0.01450  0.03457  Biso   1.000  N  -0.296312
  N10      1.0000 0.48550  0.76560  0.03457  Biso   1.000  N  -0.296312
  N11      1.0000 0.73440  0.48550  0.03457  Biso   1.000  N  -0.296312
  N12      1.0000 0.01450  0.73440  0.03457  Biso   1.000  N  -0.296312
  N13      1.0000 0.26560  0.98550  0.46543  Biso   1.000  N  -0.296312
  N14      1.0000 0.51450  0.26560  0.46543  Biso   1.000  N  -0.296312
  N15      1.0000 0.23440  0.51450  0.46543  Biso   1.000  N  -0.296312
  N16      1.0000 0.98550  0.23440  0.46543  Biso   1.000  N  -0.296312
  N17      1.0000 0.37660  0.96090  0.00321  Biso   1.000  N  -0.180095
  N18      1.0000 0.53910  0.37660  0.00321  Biso   1.000  N  -0.180095
  N19      1.0000 0.12340  0.53910  0.00321  Biso   1.000  N  -0.180095
  N20      1.0000 0.96090  0.12340  0.00321  Biso   1.000  N  -0.180095
  N21      1.0000 0.87660  0.03910  0.49679  Biso   1.000  N  -0.180095
  N22      1.0000 0.46090  0.87660  0.49679  Biso   1.000  N  -0.180095
  N23      1.0000 0.62340  0.46090  0.49679  Biso   1.000  N  -0.180095
  N24      1.0000 0.03910  0.62340  0.49679  Biso   1.000  N  -0.180095
  N25      1.0000 0.62340  0.03910  0.99679  Biso   1.000  N  -0.180095
  N26      1.0000 0.46090  0.62340  0.99679  Biso   1.000  N  -0.180095
  N27      1.0000 0.87660  0.46090  0.99679  Biso   1.000  N  -0.180095
  N28      1.0000 0.03910  0.87660  0.99679  Biso   1.000  N  -0.180095
  N29      1.0000 0.12340  0.96090  0.50321  Biso   1.000  N  -0.180095
  N30      1.0000 0.53910  0.12340  0.50321  Biso   1.000  N  -0.180095
  N31      1.0000 0.37660  0.53910  0.50321  Biso   1.000  N  -0.180095
  N32      1.0000 0.96090  0.37660  0.50321  Biso   1.000  N  -0.180095
  N33      1.0000 0.39160  0.02750  0.96584  Biso   1.000  N  -0.176764
  N34      1.0000 0.47250  0.39160  0.96584  Biso   1.000  N  -0.176764
  N35      1.0000 0.10840  0.47250  0.96584  Biso   1.000  N  -0.176764
  N36      1.0000 0.02750  0.10840  0.96584  Biso   1.000  N  -0.176764
  N37      1.0000 0.89160  0.97250  0.53416  Biso   1.000  N  -0.176764
  N38      1.0000 0.52750  0.89160  0.53416  Biso   1.000  N  -0.176764
  N39      1.0000 0.60840  0.52750  0.53416  Biso   1.000  N  -0.176764
  N40      1.0000 0.97250  0.60840  0.53416  Biso   1.000  N  -0.176764
  N41      1.0000 0.60840  0.97250  0.03416  Biso   1.000  N  -0.176764
  N42      1.0000 0.52750  0.60840  0.03416  Biso   1.000  N  -0.176764
  N43      1.0000 0.89160  0.52750  0.03416  Biso   1.000  N  -0.176764
  N44      1.0000 0.97250  0.89160  0.03416  Biso   1.000  N  -0.176764
  N45      1.0000 0.10840  0.02750  0.46584  Biso   1.000  N  -0.176764
  N46      1.0000 0.47250  0.10840  0.46584  Biso   1.000  N  -0.176764
  N47      1.0000 0.39160  0.47250  0.46584  Biso   1.000  N  -0.176764
  N48      1.0000 0.02750  0.39160  0.46584  Biso   1.000  N  -0.176764
  O1       1.0000 0.13980  0.05540  0.86644  Biso   1.000  O  -0.555120
  O2       1.0000 0.44460  0.13980  0.86644  Biso   1.000  O  -0.555120
  O3       1.0000 0.36020  0.44460  0.86644  Biso   1.000  O  -0.555120
  O4       1.0000 0.05540  0.36020  0.86644  Biso   1.000  O  -0.555120
  O5       1.0000 0.63980  0.94460  0.63356  Biso   1.000  O  -0.555120
  O6       1.0000 0.55540  0.63980  0.63356  Biso   1.000  O  -0.555120
  O7       1.0000 0.86020  0.55540  0.63356  Biso   1.000  O  -0.555120
  O8       1.0000 0.94460  0.86020  0.63356  Biso   1.000  O  -0.555120
  O9       1.0000 0.86020  0.94460  0.13356  Biso   1.000  O  -0.555120
  O10      1.0000 0.55540  0.86020  0.13356  Biso   1.000  O  -0.555120
  O11      1.0000 0.63980  0.55540  0.13356  Biso   1.000  O  -0.555120
  O12      1.0000 0.94460  0.63980  0.13356  Biso   1.000  O  -0.555120
  O13      1.0000 0.36020  0.05540  0.36644  Biso   1.000  O  -0.555120
  O14      1.0000 0.44460  0.36020  0.36644  Biso   1.000  O  -0.555120
  O15      1.0000 0.13980  0.44460  0.36644  Biso   1.000  O  -0.555120
  O16      1.0000 0.05540  0.13980  0.36644  Biso   1.000  O  -0.555120
  O17      1.0000 0.04840  0.92530  0.88338  Biso   1.000  O  -0.559341
  O18      1.0000 0.57470  0.04840  0.88338  Biso   1.000  O  -0.559341
  O19      1.0000 0.45160  0.57470  0.88338  Biso   1.000  O  -0.559341
  O20      1.0000 0.92530  0.45160  0.88338  Biso   1.000  O  -0.559341
  O21      1.0000 0.54840  0.07470  0.61662  Biso   1.000  O  -0.559341
  O22      1.0000 0.42530  0.54840  0.61662  Biso   1.000  O  -0.559341
  O23      1.0000 0.95160  0.42530  0.61662  Biso   1.000  O  -0.559341
  O24      1.0000 0.07470  0.95160  0.61662  Biso   1.000  O  -0.559341
  O25      1.0000 0.95160  0.07470  0.11662  Biso   1.000  O  -0.559341
  O26      1.0000 0.42530  0.95160  0.11662  Biso   1.000  O  -0.559341
  O27      1.0000 0.54840  0.42530  0.11662  Biso   1.000  O  -0.559341
  O28      1.0000 0.07470  0.54840  0.11662  Biso   1.000  O  -0.559341
  O29      1.0000 0.45160  0.92530  0.38338  Biso   1.000  O  -0.559341
  O30      1.0000 0.57470  0.45160  0.38338  Biso   1.000  O  -0.559341
  O31      1.0000 0.04840  0.57470  0.38338  Biso   1.000  O  -0.559341
  O32      1.0000 0.92530  0.04840  0.38338  Biso   1.000  O  -0.559341
  Zn1      1.0000 0.09002  0.97750  0.94733  Biso   1.000  Zn  0.661285
  Zn2      1.0000 0.52250  0.09002  0.94733  Biso   1.000  Zn  0.661285
  Zn3      1.0000 0.40998  0.52250  0.94733  Biso   1.000  Zn  0.661285
  Zn4      1.0000 0.97750  0.40998  0.94733  Biso   1.000  Zn  0.661285
  Zn5      1.0000 0.59002  0.02250  0.55267  Biso   1.000  Zn  0.661285
  Zn6      1.0000 0.47750  0.59002  0.55267  Biso   1.000  Zn  0.661285
  Zn7      1.0000 0.90998  0.47750  0.55267  Biso   1.000  Zn  0.661285
  Zn8      1.0000 0.02250  0.90998  0.55267  Biso   1.000  Zn  0.661285
  Zn9      1.0000 0.90998  0.02250  0.05267  Biso   1.000  Zn  0.661285
  Zn10     1.0000 0.47750  0.90998  0.05267  Biso   1.000  Zn  0.661285
  Zn11     1.0000 0.59002  0.47750  0.05267  Biso   1.000  Zn  0.661285
  Zn12     1.0000 0.02250  0.59002  0.05267  Biso   1.000  Zn  0.661285
  Zn13     1.0000 0.40998  0.97750  0.44733  Biso   1.000  Zn  0.661285
  Zn14     1.0000 0.52250  0.40998  0.44733  Biso   1.000  Zn  0.661285
  Zn15     1.0000 0.09002  0.52250  0.44733  Biso   1.000  Zn  0.661285
  Zn16     1.0000 0.97750  0.09002  0.44733  Biso   1.000  Zn  0.661285
