data_image0
_cell_length_a       18.02
_cell_length_b       27.937
_cell_length_c       23.201
_cell_angle_alpha    90
_cell_angle_beta     108.317
_cell_angle_gamma    90

_symmetry_space_group_name_H-M    "P 1"
_symmetry_int_tables_number       1

loop_
  _symmetry_equiv_pos_as_xyz
  'x, y, z'

loop_
  _atom_site_label
  _atom_site_occupancy
  _atom_site_fract_x
  _atom_site_fract_y
  _atom_site_fract_z
  _atom_site_thermal_displace_type
  _atom_site_B_iso_or_equiv
  _atom_site_type_symbol
  _atom_site_charge
  C1       1.0000 0.81400  0.31617  0.52526  Biso   1.000  C  0.203244
  C2       1.0000 0.18600  0.31617  0.97474  Biso   1.000  C  0.203244
  C3       1.0000 0.31400  0.81617  0.52526  Biso   1.000  C  0.203244
  C4       1.0000 0.68600  0.81617  0.97474  Biso   1.000  C  0.203244
  C5       1.0000 0.18600  0.68383  0.47474  Biso   1.000  C  0.203244
  C6       1.0000 0.81400  0.68383  0.02526  Biso   1.000  C  0.203244
  C7       1.0000 0.68600  0.18383  0.47474  Biso   1.000  C  0.203244
  C8       1.0000 0.31400  0.18383  0.02526  Biso   1.000  C  0.203244
  C9       1.0000 0.71345  0.30639  0.43606  Biso   1.000  C  0.206584
  C10      1.0000 0.28655  0.30639  0.06394  Biso   1.000  C  0.206584
  C11      1.0000 0.21345  0.80639  0.43606  Biso   1.000  C  0.206584
  C12      1.0000 0.78655  0.80639  0.06394  Biso   1.000  C  0.206584
  C13      1.0000 0.28655  0.69361  0.56394  Biso   1.000  C  0.206584
  C14      1.0000 0.71345  0.69361  0.93606  Biso   1.000  C  0.206584
  C15      1.0000 0.78655  0.19361  0.56394  Biso   1.000  C  0.206584
  C16      1.0000 0.21345  0.19361  0.93606  Biso   1.000  C  0.206584
  C17      1.0000 0.66041  0.32873  0.46062  Biso   1.000  C  -0.218785
  C18      1.0000 0.33959  0.32873  0.03938  Biso   1.000  C  -0.218785
  C19      1.0000 0.16041  0.82873  0.46062  Biso   1.000  C  -0.218785
  C20      1.0000 0.83959  0.82873  0.03938  Biso   1.000  C  -0.218785
  C21      1.0000 0.33959  0.67127  0.53938  Biso   1.000  C  -0.218785
  C22      1.0000 0.66041  0.67127  0.96062  Biso   1.000  C  -0.218785
  C23      1.0000 0.83959  0.17127  0.53938  Biso   1.000  C  -0.218785
  C24      1.0000 0.16041  0.17127  0.96062  Biso   1.000  C  -0.218785
  C25      1.0000 0.76557  0.34166  0.55086  Biso   1.000  C  -0.235870
  C26      1.0000 0.23443  0.34166  0.94914  Biso   1.000  C  -0.235870
  C27      1.0000 0.26557  0.84166  0.55086  Biso   1.000  C  -0.235870
  C28      1.0000 0.73443  0.84166  0.94914  Biso   1.000  C  -0.235870
  C29      1.0000 0.23443  0.65834  0.44914  Biso   1.000  C  -0.235870
  C30      1.0000 0.76557  0.65834  0.05086  Biso   1.000  C  -0.235870
  C31      1.0000 0.73443  0.15834  0.44914  Biso   1.000  C  -0.235870
  C32      1.0000 0.26557  0.15834  0.05086  Biso   1.000  C  -0.235870
  C33      1.0000 0.68792  0.34728  0.51801  Biso   1.000  C  0.145655
  C34      1.0000 0.31208  0.34728  0.98199  Biso   1.000  C  0.145655
  C35      1.0000 0.18792  0.84728  0.51801  Biso   1.000  C  0.145655
  C36      1.0000 0.81208  0.84728  0.98199  Biso   1.000  C  0.145655
  C37      1.0000 0.31208  0.65272  0.48199  Biso   1.000  C  0.145655
  C38      1.0000 0.68792  0.65272  0.01801  Biso   1.000  C  0.145655
  C39      1.0000 0.81208  0.15272  0.48199  Biso   1.000  C  0.145655
  C40      1.0000 0.18792  0.15272  0.01801  Biso   1.000  C  0.145655
  C41      1.0000 0.59550  0.59719  0.61182  Biso   1.000  C  -0.014959
  C42      1.0000 0.40450  0.59719  0.88818  Biso   1.000  C  -0.014959
  C43      1.0000 0.09550  0.09719  0.61182  Biso   1.000  C  -0.014959
  C44      1.0000 0.90450  0.09719  0.88818  Biso   1.000  C  -0.014959
  C45      1.0000 0.40450  0.40281  0.38818  Biso   1.000  C  -0.014959
  C46      1.0000 0.59550  0.40281  0.11182  Biso   1.000  C  -0.014959
  C47      1.0000 0.90450  0.90281  0.38818  Biso   1.000  C  -0.014959
  C48      1.0000 0.09550  0.90281  0.11182  Biso   1.000  C  -0.014959
  C49      1.0000 0.33748  0.29892  0.55284  Biso   1.000  C  -0.082651
  C50      1.0000 0.66252  0.29892  0.94716  Biso   1.000  C  -0.082651
  C51      1.0000 0.83748  0.79892  0.55284  Biso   1.000  C  -0.082651
  C52      1.0000 0.16252  0.79892  0.94716  Biso   1.000  C  -0.082651
  C53      1.0000 0.66252  0.70108  0.44716  Biso   1.000  C  -0.082651
  C54      1.0000 0.33748  0.70108  0.05284  Biso   1.000  C  -0.082651
  C55      1.0000 0.16252  0.20108  0.44716  Biso   1.000  C  -0.082651
  C56      1.0000 0.83748  0.20108  0.05284  Biso   1.000  C  -0.082651
  C57      1.0000 0.40051  0.32128  0.54298  Biso   1.000  C  -0.148881
  C58      1.0000 0.59949  0.32128  0.95702  Biso   1.000  C  -0.148881
  C59      1.0000 0.90051  0.82128  0.54298  Biso   1.000  C  -0.148881
  C60      1.0000 0.09949  0.82128  0.95702  Biso   1.000  C  -0.148881
  C61      1.0000 0.59949  0.67872  0.45702  Biso   1.000  C  -0.148881
  C62      1.0000 0.40051  0.67872  0.04298  Biso   1.000  C  -0.148881
  C63      1.0000 0.09949  0.17872  0.45702  Biso   1.000  C  -0.148881
  C64      1.0000 0.90051  0.17872  0.04298  Biso   1.000  C  -0.148881
  C65      1.0000 0.52984  0.42205  0.59024  Biso   1.000  C  -0.211910
  C66      1.0000 0.47016  0.42205  0.90976  Biso   1.000  C  -0.211910
  C67      1.0000 0.02984  0.92205  0.59024  Biso   1.000  C  -0.211910
  C68      1.0000 0.97016  0.92205  0.90976  Biso   1.000  C  -0.211910
  C69      1.0000 0.47016  0.57795  0.40976  Biso   1.000  C  -0.211910
  C70      1.0000 0.52984  0.57795  0.09024  Biso   1.000  C  -0.211910
  C71      1.0000 0.97016  0.07795  0.40976  Biso   1.000  C  -0.211910
  C72      1.0000 0.02984  0.07795  0.09024  Biso   1.000  C  -0.211910
  C73      1.0000 0.64375  0.42186  0.55864  Biso   1.000  C  -0.227661
  C74      1.0000 0.35625  0.42186  0.94136  Biso   1.000  C  -0.227661
  C75      1.0000 0.14375  0.92186  0.55864  Biso   1.000  C  -0.227661
  C76      1.0000 0.85625  0.92186  0.94136  Biso   1.000  C  -0.227661
  C77      1.0000 0.35625  0.57814  0.44136  Biso   1.000  C  -0.227661
  C78      1.0000 0.64375  0.57814  0.05864  Biso   1.000  C  -0.227661
  C79      1.0000 0.85625  0.07814  0.44136  Biso   1.000  C  -0.227661
  C80      1.0000 0.14375  0.07814  0.05864  Biso   1.000  C  -0.227661
  C81      1.0000 0.66690  0.57284  0.62500  Biso   1.000  C  -0.095569
  C82      1.0000 0.33310  0.57284  0.87500  Biso   1.000  C  -0.095569
  C83      1.0000 0.16690  0.07284  0.62500  Biso   1.000  C  -0.095569
  C84      1.0000 0.83310  0.07284  0.87500  Biso   1.000  C  -0.095569
  C85      1.0000 0.33310  0.42716  0.37500  Biso   1.000  C  -0.095569
  C86      1.0000 0.66690  0.42716  0.12500  Biso   1.000  C  -0.095569
  C87      1.0000 0.83310  0.92716  0.37500  Biso   1.000  C  -0.095569
  C88      1.0000 0.16690  0.92716  0.12500  Biso   1.000  C  -0.095569
  C89      1.0000 0.02040  0.27348  0.55835  Biso   1.000  C  0.108651
  C90      1.0000 0.97960  0.27348  0.94165  Biso   1.000  C  0.108651
  C91      1.0000 0.52040  0.77348  0.55835  Biso   1.000  C  0.108651
  C92      1.0000 0.47960  0.77348  0.94165  Biso   1.000  C  0.108651
  C93      1.0000 0.97960  0.72652  0.44165  Biso   1.000  C  0.108651
  C94      1.0000 0.02040  0.72652  0.05835  Biso   1.000  C  0.108651
  C95      1.0000 0.47960  0.22652  0.44165  Biso   1.000  C  0.108651
  C96      1.0000 0.52040  0.22652  0.05835  Biso   1.000  C  0.108651
  C97      1.0000 0.94549  0.28670  0.52739  Biso   1.000  C  -0.165940
  C98      1.0000 0.05451  0.28670  0.97261  Biso   1.000  C  -0.165940
  C99      1.0000 0.44549  0.78670  0.52739  Biso   1.000  C  -0.165940
  C100     1.0000 0.55451  0.78670  0.97261  Biso   1.000  C  -0.165940
  C101     1.0000 0.05451  0.71330  0.47261  Biso   1.000  C  -0.165940
  C102     1.0000 0.94549  0.71330  0.02739  Biso   1.000  C  -0.165940
  C103     1.0000 0.55451  0.21330  0.47261  Biso   1.000  C  -0.165940
  C104     1.0000 0.44549  0.21330  0.02739  Biso   1.000  C  -0.165940
  C105     1.0000 0.93016  0.30969  0.62089  Biso   1.000  C  -0.187871
  C106     1.0000 0.06984  0.30969  0.87911  Biso   1.000  C  -0.187871
  C107     1.0000 0.43016  0.80969  0.62089  Biso   1.000  C  -0.187871
  C108     1.0000 0.56984  0.80969  0.87911  Biso   1.000  C  -0.187871
  C109     1.0000 0.06984  0.69031  0.37911  Biso   1.000  C  -0.187871
  C110     1.0000 0.93016  0.69031  0.12089  Biso   1.000  C  -0.187871
  C111     1.0000 0.56984  0.19031  0.37911  Biso   1.000  C  -0.187871
  C112     1.0000 0.43016  0.19031  0.12089  Biso   1.000  C  -0.187871
  C113     1.0000 0.00507  0.29559  0.64815  Biso   1.000  C  0.085768
  C114     1.0000 0.99493  0.29559  0.85185  Biso   1.000  C  0.085768
  C115     1.0000 0.50507  0.79559  0.64815  Biso   1.000  C  0.085768
  C116     1.0000 0.49493  0.79559  0.85185  Biso   1.000  C  0.085768
  C117     1.0000 0.99493  0.70441  0.35185  Biso   1.000  C  0.085768
  C118     1.0000 0.00507  0.70441  0.14815  Biso   1.000  C  0.085768
  C119     1.0000 0.49493  0.20441  0.35185  Biso   1.000  C  0.085768
  C120     1.0000 0.50507  0.20441  0.14815  Biso   1.000  C  0.085768
  C121     1.0000 0.37320  0.33011  0.65258  Biso   1.000  C  -0.109301
  C122     1.0000 0.62680  0.33011  0.84742  Biso   1.000  C  -0.109301
  C123     1.0000 0.87320  0.83011  0.65258  Biso   1.000  C  -0.109301
  C124     1.0000 0.12680  0.83011  0.84742  Biso   1.000  C  -0.109301
  C125     1.0000 0.62680  0.66989  0.34742  Biso   1.000  C  -0.109301
  C126     1.0000 0.37320  0.66989  0.15258  Biso   1.000  C  -0.109301
  C127     1.0000 0.12680  0.16989  0.34742  Biso   1.000  C  -0.109301
  C128     1.0000 0.87320  0.16989  0.15258  Biso   1.000  C  -0.109301
  C129     1.0000 0.63304  0.37413  0.54431  Biso   1.000  C  0.084346
  C130     1.0000 0.36696  0.37413  0.95569  Biso   1.000  C  0.084346
  C131     1.0000 0.13304  0.87413  0.54431  Biso   1.000  C  0.084346
  C132     1.0000 0.86696  0.87413  0.95569  Biso   1.000  C  0.084346
  C133     1.0000 0.36696  0.62587  0.45569  Biso   1.000  C  0.084346
  C134     1.0000 0.63304  0.62587  0.04431  Biso   1.000  C  0.084346
  C135     1.0000 0.86696  0.12587  0.45569  Biso   1.000  C  0.084346
  C136     1.0000 0.13304  0.12587  0.04431  Biso   1.000  C  0.084346
  C137     1.0000 0.52780  0.57454  0.59017  Biso   1.000  C  -0.119521
  C138     1.0000 0.47220  0.57454  0.90983  Biso   1.000  C  -0.119521
  C139     1.0000 0.02780  0.07454  0.59017  Biso   1.000  C  -0.119521
  C140     1.0000 0.97220  0.07454  0.90983  Biso   1.000  C  -0.119521
  C141     1.0000 0.47220  0.42546  0.40983  Biso   1.000  C  -0.119521
  C142     1.0000 0.52780  0.42546  0.09017  Biso   1.000  C  -0.119521
  C143     1.0000 0.97220  0.92546  0.40983  Biso   1.000  C  -0.119521
  C144     1.0000 0.02780  0.92546  0.09017  Biso   1.000  C  -0.119521
  C145     1.0000 0.74111  0.26052  0.35267  Biso   1.000  C  -0.177778
  C146     1.0000 0.25889  0.26052  0.14733  Biso   1.000  C  -0.177778
  C147     1.0000 0.24111  0.76052  0.35267  Biso   1.000  C  -0.177778
  C148     1.0000 0.75889  0.76052  0.14733  Biso   1.000  C  -0.177778
  C149     1.0000 0.25889  0.73948  0.64733  Biso   1.000  C  -0.177778
  C150     1.0000 0.74111  0.73948  0.85267  Biso   1.000  C  -0.177778
  C151     1.0000 0.75889  0.23948  0.64733  Biso   1.000  C  -0.177778
  C152     1.0000 0.24111  0.23948  0.85267  Biso   1.000  C  -0.177778
  C153     1.0000 0.25350  0.27923  0.61777  Biso   1.000  C  0.576766
  C154     1.0000 0.74650  0.27923  0.88223  Biso   1.000  C  0.576766
  C155     1.0000 0.75350  0.77923  0.61777  Biso   1.000  C  0.576766
  C156     1.0000 0.24650  0.77923  0.88223  Biso   1.000  C  0.576766
  C157     1.0000 0.74650  0.72077  0.38223  Biso   1.000  C  0.576766
  C158     1.0000 0.25350  0.72077  0.11777  Biso   1.000  C  0.576766
  C159     1.0000 0.24650  0.22077  0.38223  Biso   1.000  C  0.576766
  C160     1.0000 0.75350  0.22077  0.11777  Biso   1.000  C  0.576766
  C161     1.0000 0.32359  0.30354  0.60789  Biso   1.000  C  -0.025263
  C162     1.0000 0.67641  0.30354  0.89211  Biso   1.000  C  -0.025263
  C163     1.0000 0.82359  0.80354  0.60789  Biso   1.000  C  -0.025263
  C164     1.0000 0.17641  0.80354  0.89211  Biso   1.000  C  -0.025263
  C165     1.0000 0.67641  0.69646  0.39211  Biso   1.000  C  -0.025263
  C166     1.0000 0.32359  0.69646  0.10789  Biso   1.000  C  -0.025263
  C167     1.0000 0.17641  0.19646  0.39211  Biso   1.000  C  -0.025263
  C168     1.0000 0.82359  0.19646  0.10789  Biso   1.000  C  -0.025263
  C169     1.0000 0.45137  0.34812  0.58842  Biso   1.000  C  0.069640
  C170     1.0000 0.54863  0.34812  0.91158  Biso   1.000  C  0.069640
  C171     1.0000 0.95137  0.84812  0.58842  Biso   1.000  C  0.069640
  C172     1.0000 0.04863  0.84812  0.91158  Biso   1.000  C  0.069640
  C173     1.0000 0.54863  0.65188  0.41158  Biso   1.000  C  0.069640
  C174     1.0000 0.45137  0.65188  0.08842  Biso   1.000  C  0.069640
  C175     1.0000 0.04863  0.15188  0.41158  Biso   1.000  C  0.069640
  C176     1.0000 0.95137  0.15188  0.08842  Biso   1.000  C  0.069640
  C177     1.0000 0.43830  0.35243  0.64344  Biso   1.000  C  -0.163210
  C178     1.0000 0.56170  0.35243  0.85656  Biso   1.000  C  -0.163210
  C179     1.0000 0.93830  0.85243  0.64344  Biso   1.000  C  -0.163210
  C180     1.0000 0.06170  0.85243  0.85656  Biso   1.000  C  -0.163210
  C181     1.0000 0.56170  0.64757  0.35656  Biso   1.000  C  -0.163210
  C182     1.0000 0.43830  0.64757  0.14344  Biso   1.000  C  -0.163210
  C183     1.0000 0.06170  0.14757  0.35656  Biso   1.000  C  -0.163210
  C184     1.0000 0.93830  0.14757  0.14344  Biso   1.000  C  -0.163210
  C185     1.0000 0.51789  0.37377  0.57667  Biso   1.000  C  0.109065
  C186     1.0000 0.48211  0.37377  0.92333  Biso   1.000  C  0.109065
  C187     1.0000 0.01789  0.87377  0.57667  Biso   1.000  C  0.109065
  C188     1.0000 0.98211  0.87377  0.92333  Biso   1.000  C  0.109065
  C189     1.0000 0.48211  0.62623  0.42333  Biso   1.000  C  0.109065
  C190     1.0000 0.51789  0.62623  0.07667  Biso   1.000  C  0.109065
  C191     1.0000 0.98211  0.12623  0.42333  Biso   1.000  C  0.109065
  C192     1.0000 0.01789  0.12623  0.07667  Biso   1.000  C  0.109065
  C193     1.0000 0.59088  0.44727  0.58016  Biso   1.000  C  0.104897
  C194     1.0000 0.40912  0.44727  0.91984  Biso   1.000  C  0.104897
  C195     1.0000 0.09088  0.94727  0.58016  Biso   1.000  C  0.104897
  C196     1.0000 0.90912  0.94727  0.91984  Biso   1.000  C  0.104897
  C197     1.0000 0.40912  0.55273  0.41984  Biso   1.000  C  0.104897
  C198     1.0000 0.59088  0.55273  0.08016  Biso   1.000  C  0.104897
  C199     1.0000 0.90912  0.05273  0.41984  Biso   1.000  C  0.104897
  C200     1.0000 0.09088  0.05273  0.08016  Biso   1.000  C  0.104897
  C201     1.0000 0.56973  0.35049  0.55199  Biso   1.000  C  -0.222686
  C202     1.0000 0.43027  0.35049  0.94801  Biso   1.000  C  -0.222686
  C203     1.0000 0.06973  0.85049  0.55199  Biso   1.000  C  -0.222686
  C204     1.0000 0.93027  0.85049  0.94801  Biso   1.000  C  -0.222686
  C205     1.0000 0.43027  0.64951  0.44801  Biso   1.000  C  -0.222686
  C206     1.0000 0.56973  0.64951  0.05199  Biso   1.000  C  -0.222686
  C207     1.0000 0.93027  0.14951  0.44801  Biso   1.000  C  -0.222686
  C208     1.0000 0.06973  0.14951  0.05199  Biso   1.000  C  -0.222686
  C209     1.0000 0.59600  0.49921  0.59101  Biso   1.000  C  0.071366
  C210     1.0000 0.40400  0.49921  0.90899  Biso   1.000  C  0.071366
  C211     1.0000 0.09600  0.99921  0.59101  Biso   1.000  C  0.071366
  C212     1.0000 0.90400  0.99921  0.90899  Biso   1.000  C  0.071366
  C213     1.0000 0.40400  0.50079  0.40899  Biso   1.000  C  0.071366
  C214     1.0000 0.59600  0.50079  0.09101  Biso   1.000  C  0.071366
  C215     1.0000 0.90400  0.00079  0.40899  Biso   1.000  C  0.071366
  C216     1.0000 0.09600  0.00079  0.09101  Biso   1.000  C  0.071366
  C217     1.0000 0.66600  0.52284  0.61370  Biso   1.000  C  -0.161850
  C218     1.0000 0.33400  0.52284  0.88630  Biso   1.000  C  -0.161850
  C219     1.0000 0.16600  0.02284  0.61370  Biso   1.000  C  -0.161850
  C220     1.0000 0.83400  0.02284  0.88630  Biso   1.000  C  -0.161850
  C221     1.0000 0.33400  0.47716  0.38630  Biso   1.000  C  -0.161850
  C222     1.0000 0.66600  0.47716  0.11370  Biso   1.000  C  -0.161850
  C223     1.0000 0.83400  0.97716  0.38630  Biso   1.000  C  -0.161850
  C224     1.0000 0.16600  0.97716  0.11370  Biso   1.000  C  -0.161850
  C225     1.0000 0.52810  0.52633  0.57890  Biso   1.000  C  -0.141085
  C226     1.0000 0.47190  0.52633  0.92110  Biso   1.000  C  -0.141085
  C227     1.0000 0.02810  0.02633  0.57890  Biso   1.000  C  -0.141085
  C228     1.0000 0.97190  0.02633  0.92110  Biso   1.000  C  -0.141085
  C229     1.0000 0.47190  0.47367  0.42110  Biso   1.000  C  -0.141085
  C230     1.0000 0.52810  0.47367  0.07890  Biso   1.000  C  -0.141085
  C231     1.0000 0.97190  0.97367  0.42110  Biso   1.000  C  -0.141085
  C232     1.0000 0.02810  0.97367  0.07890  Biso   1.000  C  -0.141085
  C233     1.0000 0.69160  0.29022  0.37185  Biso   1.000  C  0.094467
  C234     1.0000 0.30840  0.29022  0.12815  Biso   1.000  C  0.094467
  C235     1.0000 0.19160  0.79022  0.37185  Biso   1.000  C  0.094467
  C236     1.0000 0.80840  0.79022  0.12815  Biso   1.000  C  0.094467
  C237     1.0000 0.30840  0.70978  0.62815  Biso   1.000  C  0.094467
  C238     1.0000 0.69160  0.70978  0.87185  Biso   1.000  C  0.094467
  C239     1.0000 0.80840  0.20978  0.62815  Biso   1.000  C  0.094467
  C240     1.0000 0.19160  0.20978  0.87185  Biso   1.000  C  0.094467
  C241     1.0000 0.58744  0.65135  0.62546  Biso   1.000  C  0.557308
  C242     1.0000 0.41256  0.65135  0.87454  Biso   1.000  C  0.557308
  C243     1.0000 0.08744  0.15135  0.62546  Biso   1.000  C  0.557308
  C244     1.0000 0.91256  0.15135  0.87454  Biso   1.000  C  0.557308
  C245     1.0000 0.41256  0.34865  0.37454  Biso   1.000  C  0.557308
  C246     1.0000 0.58744  0.34865  0.12546  Biso   1.000  C  0.557308
  C247     1.0000 0.91256  0.84865  0.37454  Biso   1.000  C  0.557308
  C248     1.0000 0.08744  0.84865  0.12546  Biso   1.000  C  0.557308
  C249     1.0000 0.89714  0.30430  0.55856  Biso   1.000  C  0.095005
  C250     1.0000 0.10286  0.30430  0.94144  Biso   1.000  C  0.095005
  C251     1.0000 0.39714  0.80430  0.55856  Biso   1.000  C  0.095005
  C252     1.0000 0.60286  0.80430  0.94144  Biso   1.000  C  0.095005
  C253     1.0000 0.10286  0.69570  0.44144  Biso   1.000  C  0.095005
  C254     1.0000 0.89714  0.69570  0.05856  Biso   1.000  C  0.095005
  C255     1.0000 0.60286  0.19570  0.44144  Biso   1.000  C  0.095005
  C256     1.0000 0.39714  0.19570  0.05856  Biso   1.000  C  0.095005
  C257     1.0000 0.72352  0.24943  0.29287  Biso   1.000  C  0.093740
  C258     1.0000 0.27648  0.24943  0.20713  Biso   1.000  C  0.093740
  C259     1.0000 0.22352  0.74943  0.29287  Biso   1.000  C  0.093740
  C260     1.0000 0.77648  0.74943  0.20713  Biso   1.000  C  0.093740
  C261     1.0000 0.27648  0.75057  0.70713  Biso   1.000  C  0.093740
  C262     1.0000 0.72352  0.75057  0.79287  Biso   1.000  C  0.093740
  C263     1.0000 0.77648  0.25057  0.70713  Biso   1.000  C  0.093740
  C264     1.0000 0.22352  0.25057  0.79287  Biso   1.000  C  0.093740
  C265     1.0000 0.62369  0.30489  0.32797  Biso   1.000  C  -0.175795
  C266     1.0000 0.37631  0.30489  0.17203  Biso   1.000  C  -0.175795
  C267     1.0000 0.12369  0.80489  0.32797  Biso   1.000  C  -0.175795
  C268     1.0000 0.87631  0.80489  0.17203  Biso   1.000  C  -0.175795
  C269     1.0000 0.37631  0.69511  0.67203  Biso   1.000  C  -0.175795
  C270     1.0000 0.62369  0.69511  0.82797  Biso   1.000  C  -0.175795
  C271     1.0000 0.87631  0.19511  0.67203  Biso   1.000  C  -0.175795
  C272     1.0000 0.12369  0.19511  0.82797  Biso   1.000  C  -0.175795
  C273     1.0000 0.61137  0.29220  0.26867  Biso   1.000  C  0.083519
  C274     1.0000 0.38863  0.29220  0.23133  Biso   1.000  C  0.083519
  C275     1.0000 0.11137  0.79220  0.26867  Biso   1.000  C  0.083519
  C276     1.0000 0.88863  0.79220  0.23133  Biso   1.000  C  0.083519
  C277     1.0000 0.38863  0.70780  0.73133  Biso   1.000  C  0.083519
  C278     1.0000 0.61137  0.70780  0.76867  Biso   1.000  C  0.083519
  C279     1.0000 0.88863  0.20780  0.73133  Biso   1.000  C  0.083519
  C280     1.0000 0.11137  0.20780  0.76867  Biso   1.000  C  0.083519
  H1       1.0000 0.60770  0.33090  0.43840  Biso   1.000  H  0.139653
  H2       1.0000 0.39230  0.33090  0.06160  Biso   1.000  H  0.139653
  H3       1.0000 0.10770  0.83090  0.43840  Biso   1.000  H  0.139653
  H4       1.0000 0.89230  0.83090  0.06160  Biso   1.000  H  0.139653
  H5       1.0000 0.39230  0.66910  0.56160  Biso   1.000  H  0.139653
  H6       1.0000 0.60770  0.66910  0.93840  Biso   1.000  H  0.139653
  H7       1.0000 0.89230  0.16910  0.56160  Biso   1.000  H  0.139653
  H8       1.0000 0.10770  0.16910  0.93840  Biso   1.000  H  0.139653
  H9       1.0000 0.78550  0.35470  0.58960  Biso   1.000  H  0.133778
  H10      1.0000 0.21450  0.35470  0.91040  Biso   1.000  H  0.133778
  H11      1.0000 0.28550  0.85470  0.58960  Biso   1.000  H  0.133778
  H12      1.0000 0.71450  0.85470  0.91040  Biso   1.000  H  0.133778
  H13      1.0000 0.21450  0.64530  0.41040  Biso   1.000  H  0.133778
  H14      1.0000 0.78550  0.64530  0.08960  Biso   1.000  H  0.133778
  H15      1.0000 0.71450  0.14530  0.41040  Biso   1.000  H  0.133778
  H16      1.0000 0.28550  0.14530  0.08960  Biso   1.000  H  0.133778
  H17      1.0000 0.30390  0.28050  0.52220  Biso   1.000  H  0.119407
  H18      1.0000 0.69610  0.28050  0.97780  Biso   1.000  H  0.119407
  H19      1.0000 0.80390  0.78050  0.52220  Biso   1.000  H  0.119407
  H20      1.0000 0.19610  0.78050  0.97780  Biso   1.000  H  0.119407
  H21      1.0000 0.69610  0.71950  0.47780  Biso   1.000  H  0.119407
  H22      1.0000 0.30390  0.71950  0.02220  Biso   1.000  H  0.119407
  H23      1.0000 0.19610  0.21950  0.47780  Biso   1.000  H  0.119407
  H24      1.0000 0.80390  0.21950  0.02220  Biso   1.000  H  0.119407
  H25      1.0000 0.40890  0.31830  0.50560  Biso   1.000  H  0.112591
  H26      1.0000 0.59110  0.31830  0.99440  Biso   1.000  H  0.112591
  H27      1.0000 0.90890  0.81830  0.50560  Biso   1.000  H  0.112591
  H28      1.0000 0.09110  0.81830  0.99440  Biso   1.000  H  0.112591
  H29      1.0000 0.59110  0.68170  0.49440  Biso   1.000  H  0.112591
  H30      1.0000 0.40890  0.68170  0.00560  Biso   1.000  H  0.112591
  H31      1.0000 0.09110  0.18170  0.49440  Biso   1.000  H  0.112591
  H32      1.0000 0.90890  0.18170  0.00560  Biso   1.000  H  0.112591
  H33      1.0000 0.49580  0.43800  0.60660  Biso   1.000  H  0.122771
  H34      1.0000 0.50420  0.43800  0.89340  Biso   1.000  H  0.122771
  H35      1.0000 0.99580  0.93800  0.60660  Biso   1.000  H  0.122771
  H36      1.0000 0.00420  0.93800  0.89340  Biso   1.000  H  0.122771
  H37      1.0000 0.50420  0.56200  0.39340  Biso   1.000  H  0.122771
  H38      1.0000 0.49580  0.56200  0.10660  Biso   1.000  H  0.122771
  H39      1.0000 0.00420  0.06200  0.39340  Biso   1.000  H  0.122771
  H40      1.0000 0.99580  0.06200  0.10660  Biso   1.000  H  0.122771
  H41      1.0000 0.68700  0.43760  0.55400  Biso   1.000  H  0.118835
  H42      1.0000 0.31300  0.43760  0.94600  Biso   1.000  H  0.118835
  H43      1.0000 0.18700  0.93760  0.55400  Biso   1.000  H  0.118835
  H44      1.0000 0.81300  0.93760  0.94600  Biso   1.000  H  0.118835
  H45      1.0000 0.31300  0.56240  0.44600  Biso   1.000  H  0.118835
  H46      1.0000 0.68700  0.56240  0.05400  Biso   1.000  H  0.118835
  H47      1.0000 0.81300  0.06240  0.44600  Biso   1.000  H  0.118835
  H48      1.0000 0.18700  0.06240  0.05400  Biso   1.000  H  0.118835
  H49      1.0000 0.71390  0.58910  0.64090  Biso   1.000  H  0.122379
  H50      1.0000 0.28610  0.58910  0.85910  Biso   1.000  H  0.122379
  H51      1.0000 0.21390  0.08910  0.64090  Biso   1.000  H  0.122379
  H52      1.0000 0.78610  0.08910  0.85910  Biso   1.000  H  0.122379
  H53      1.0000 0.28610  0.41090  0.35910  Biso   1.000  H  0.122379
  H54      1.0000 0.71390  0.41090  0.14090  Biso   1.000  H  0.122379
  H55      1.0000 0.78610  0.91090  0.35910  Biso   1.000  H  0.122379
  H56      1.0000 0.21390  0.91090  0.14090  Biso   1.000  H  0.122379
  H57      1.0000 0.05160  0.26160  0.53640  Biso   1.000  H  0.106923
  H58      1.0000 0.94840  0.26160  0.96360  Biso   1.000  H  0.106923
  H59      1.0000 0.55160  0.76160  0.53640  Biso   1.000  H  0.106923
  H60      1.0000 0.44840  0.76160  0.96360  Biso   1.000  H  0.106923
  H61      1.0000 0.94840  0.73840  0.46360  Biso   1.000  H  0.106923
  H62      1.0000 0.05160  0.73840  0.03640  Biso   1.000  H  0.106923
  H63      1.0000 0.44840  0.23840  0.46360  Biso   1.000  H  0.106923
  H64      1.0000 0.55160  0.23840  0.03640  Biso   1.000  H  0.106923
  H65      1.0000 0.92690  0.28390  0.48530  Biso   1.000  H  0.133518
  H66      1.0000 0.07310  0.28390  0.01470  Biso   1.000  H  0.133518
  H67      1.0000 0.42690  0.78390  0.48530  Biso   1.000  H  0.133518
  H68      1.0000 0.57310  0.78390  0.01470  Biso   1.000  H  0.133518
  H69      1.0000 0.07310  0.71610  0.51470  Biso   1.000  H  0.133518
  H70      1.0000 0.92690  0.71610  0.98530  Biso   1.000  H  0.133518
  H71      1.0000 0.57310  0.21610  0.51470  Biso   1.000  H  0.133518
  H72      1.0000 0.42690  0.21610  0.98530  Biso   1.000  H  0.133518
  H73      1.0000 0.90120  0.32290  0.64380  Biso   1.000  H  0.125867
  H74      1.0000 0.09880  0.32290  0.85620  Biso   1.000  H  0.125867
  H75      1.0000 0.40120  0.82290  0.64380  Biso   1.000  H  0.125867
  H76      1.0000 0.59880  0.82290  0.85620  Biso   1.000  H  0.125867
  H77      1.0000 0.09880  0.67710  0.35620  Biso   1.000  H  0.125867
  H78      1.0000 0.90120  0.67710  0.14380  Biso   1.000  H  0.125867
  H79      1.0000 0.59880  0.17710  0.35620  Biso   1.000  H  0.125867
  H80      1.0000 0.40120  0.17710  0.14380  Biso   1.000  H  0.125867
  H81      1.0000 0.02570  0.29920  0.69000  Biso   1.000  H  0.084018
  H82      1.0000 0.97430  0.29920  0.81000  Biso   1.000  H  0.084018
  H83      1.0000 0.52570  0.79920  0.69000  Biso   1.000  H  0.084018
  H84      1.0000 0.47430  0.79920  0.81000  Biso   1.000  H  0.084018
  H85      1.0000 0.97430  0.70080  0.31000  Biso   1.000  H  0.084018
  H86      1.0000 0.02570  0.70080  0.19000  Biso   1.000  H  0.084018
  H87      1.0000 0.47430  0.20080  0.31000  Biso   1.000  H  0.084018
  H88      1.0000 0.52570  0.20080  0.19000  Biso   1.000  H  0.084018
  H89      1.0000 0.36390  0.33360  0.68960  Biso   1.000  H  0.112949
  H90      1.0000 0.63610  0.33360  0.81040  Biso   1.000  H  0.112949
  H91      1.0000 0.86390  0.83360  0.68960  Biso   1.000  H  0.112949
  H92      1.0000 0.13610  0.83360  0.81040  Biso   1.000  H  0.112949
  H93      1.0000 0.63610  0.66640  0.31040  Biso   1.000  H  0.112949
  H94      1.0000 0.36390  0.66640  0.18960  Biso   1.000  H  0.112949
  H95      1.0000 0.13610  0.16640  0.31040  Biso   1.000  H  0.112949
  H96      1.0000 0.86390  0.16640  0.18960  Biso   1.000  H  0.112949
  H97      1.0000 0.48090  0.59110  0.58270  Biso   1.000  H  0.110695
  H98      1.0000 0.51910  0.59110  0.91730  Biso   1.000  H  0.110695
  H99      1.0000 0.98090  0.09110  0.58270  Biso   1.000  H  0.110695
  H100     1.0000 0.01910  0.09110  0.91730  Biso   1.000  H  0.110695
  H101     1.0000 0.51910  0.40890  0.41730  Biso   1.000  H  0.110695
  H102     1.0000 0.48090  0.40890  0.08270  Biso   1.000  H  0.110695
  H103     1.0000 0.01910  0.90890  0.41730  Biso   1.000  H  0.110695
  H104     1.0000 0.98090  0.90890  0.08270  Biso   1.000  H  0.110695
  H105     1.0000 0.78610  0.24830  0.38070  Biso   1.000  H  0.128438
  H106     1.0000 0.21390  0.24830  0.11930  Biso   1.000  H  0.128438
  H107     1.0000 0.28610  0.74830  0.38070  Biso   1.000  H  0.128438
  H108     1.0000 0.71390  0.74830  0.11930  Biso   1.000  H  0.128438
  H109     1.0000 0.21390  0.75170  0.61930  Biso   1.000  H  0.128438
  H110     1.0000 0.78610  0.75170  0.88070  Biso   1.000  H  0.128438
  H111     1.0000 0.71390  0.25170  0.61930  Biso   1.000  H  0.128438
  H112     1.0000 0.28610  0.25170  0.88070  Biso   1.000  H  0.128438
  H113     1.0000 0.47260  0.37010  0.67450  Biso   1.000  H  0.112364
  H114     1.0000 0.52740  0.37010  0.82550  Biso   1.000  H  0.112364
  H115     1.0000 0.97260  0.87010  0.67450  Biso   1.000  H  0.112364
  H116     1.0000 0.02740  0.87010  0.82550  Biso   1.000  H  0.112364
  H117     1.0000 0.52740  0.62990  0.32550  Biso   1.000  H  0.112364
  H118     1.0000 0.47260  0.62990  0.17450  Biso   1.000  H  0.112364
  H119     1.0000 0.02740  0.12990  0.32550  Biso   1.000  H  0.112364
  H120     1.0000 0.97260  0.12990  0.17450  Biso   1.000  H  0.112364
  H121     1.0000 0.56130  0.31850  0.54060  Biso   1.000  H  0.116824
  H122     1.0000 0.43870  0.31850  0.95940  Biso   1.000  H  0.116824
  H123     1.0000 0.06130  0.81850  0.54060  Biso   1.000  H  0.116824
  H124     1.0000 0.93870  0.81850  0.95940  Biso   1.000  H  0.116824
  H125     1.0000 0.43870  0.68150  0.45940  Biso   1.000  H  0.116824
  H126     1.0000 0.56130  0.68150  0.04060  Biso   1.000  H  0.116824
  H127     1.0000 0.93870  0.18150  0.45940  Biso   1.000  H  0.116824
  H128     1.0000 0.06130  0.18150  0.04060  Biso   1.000  H  0.116824
  H129     1.0000 0.71280  0.50610  0.62160  Biso   1.000  H  0.113978
  H130     1.0000 0.28720  0.50610  0.87840  Biso   1.000  H  0.113978
  H131     1.0000 0.21280  0.00610  0.62160  Biso   1.000  H  0.113978
  H132     1.0000 0.78720  0.00610  0.87840  Biso   1.000  H  0.113978
  H133     1.0000 0.28720  0.49390  0.37840  Biso   1.000  H  0.113978
  H134     1.0000 0.71280  0.49390  0.12160  Biso   1.000  H  0.113978
  H135     1.0000 0.78720  0.99390  0.37840  Biso   1.000  H  0.113978
  H136     1.0000 0.21280  0.99390  0.12160  Biso   1.000  H  0.113978
  H137     1.0000 0.48030  0.51100  0.56230  Biso   1.000  H  0.104148
  H138     1.0000 0.51970  0.51100  0.93770  Biso   1.000  H  0.104148
  H139     1.0000 0.98030  0.01100  0.56230  Biso   1.000  H  0.104148
  H140     1.0000 0.01970  0.01100  0.93770  Biso   1.000  H  0.104148
  H141     1.0000 0.51970  0.48900  0.43770  Biso   1.000  H  0.104148
  H142     1.0000 0.48030  0.48900  0.06230  Biso   1.000  H  0.104148
  H143     1.0000 0.01970  0.98900  0.43770  Biso   1.000  H  0.104148
  H144     1.0000 0.98030  0.98900  0.06230  Biso   1.000  H  0.104148
  H145     1.0000 0.75760  0.22950  0.28120  Biso   1.000  H  0.107189
  H146     1.0000 0.24240  0.22950  0.21880  Biso   1.000  H  0.107189
  H147     1.0000 0.25760  0.72950  0.28120  Biso   1.000  H  0.107189
  H148     1.0000 0.74240  0.72950  0.21880  Biso   1.000  H  0.107189
  H149     1.0000 0.24240  0.77050  0.71880  Biso   1.000  H  0.107189
  H150     1.0000 0.75760  0.77050  0.78120  Biso   1.000  H  0.107189
  H151     1.0000 0.74240  0.27050  0.71880  Biso   1.000  H  0.107189
  H152     1.0000 0.25760  0.27050  0.78120  Biso   1.000  H  0.107189
  H153     1.0000 0.58690  0.32320  0.33870  Biso   1.000  H  0.138038
  H154     1.0000 0.41310  0.32320  0.16130  Biso   1.000  H  0.138038
  H155     1.0000 0.08690  0.82320  0.33870  Biso   1.000  H  0.138038
  H156     1.0000 0.91310  0.82320  0.16130  Biso   1.000  H  0.138038
  H157     1.0000 0.41310  0.67680  0.66130  Biso   1.000  H  0.138038
  H158     1.0000 0.58690  0.67680  0.83870  Biso   1.000  H  0.138038
  H159     1.0000 0.91310  0.17680  0.66130  Biso   1.000  H  0.138038
  H160     1.0000 0.08690  0.17680  0.83870  Biso   1.000  H  0.138038
  H161     1.0000 0.56600  0.30300  0.23970  Biso   1.000  H  0.089856
  H162     1.0000 0.43400  0.30300  0.26030  Biso   1.000  H  0.089856
  H163     1.0000 0.06600  0.80300  0.23970  Biso   1.000  H  0.089856
  H164     1.0000 0.93400  0.80300  0.26030  Biso   1.000  H  0.089856
  H165     1.0000 0.43400  0.69700  0.76030  Biso   1.000  H  0.089856
  H166     1.0000 0.56600  0.69700  0.73970  Biso   1.000  H  0.089856
  H167     1.0000 0.93400  0.19700  0.76030  Biso   1.000  H  0.089856
  H168     1.0000 0.06600  0.19700  0.73970  Biso   1.000  H  0.089856
  N1       1.0000 0.78846  0.29928  0.46871  Biso   1.000  N  -0.333917
  N2       1.0000 0.21154  0.29928  0.03129  Biso   1.000  N  -0.333917
  N3       1.0000 0.28846  0.79928  0.46871  Biso   1.000  N  -0.333917
  N4       1.0000 0.71154  0.79928  0.03129  Biso   1.000  N  -0.333917
  N5       1.0000 0.21154  0.70072  0.53129  Biso   1.000  N  -0.333917
  N6       1.0000 0.78846  0.70072  0.96871  Biso   1.000  N  -0.333917
  N7       1.0000 0.71154  0.20072  0.53129  Biso   1.000  N  -0.333917
  N8       1.0000 0.28846  0.20072  0.96871  Biso   1.000  N  -0.333917
  N9       1.0000 0.05099  0.27682  0.61879  Biso   1.000  N  -0.203866
  N10      1.0000 0.94901  0.27682  0.88121  Biso   1.000  N  -0.203866
  N11      1.0000 0.55099  0.77682  0.61879  Biso   1.000  N  -0.203866
  N12      1.0000 0.44901  0.77682  0.88121  Biso   1.000  N  -0.203866
  N13      1.0000 0.94901  0.72318  0.38121  Biso   1.000  N  -0.203866
  N14      1.0000 0.05099  0.72318  0.11879  Biso   1.000  N  -0.203866
  N15      1.0000 0.44901  0.22318  0.38121  Biso   1.000  N  -0.203866
  N16      1.0000 0.55099  0.22318  0.11879  Biso   1.000  N  -0.203866
  N17      1.0000 0.66027  0.26540  0.25002  Biso   1.000  N  -0.210183
  N18      1.0000 0.33973  0.26540  0.24998  Biso   1.000  N  -0.210183
  N19      1.0000 0.16027  0.76540  0.25002  Biso   1.000  N  -0.210183
  N20      1.0000 0.83973  0.76540  0.24998  Biso   1.000  N  -0.210183
  N21      1.0000 0.33973  0.73460  0.74998  Biso   1.000  N  -0.210183
  N22      1.0000 0.66027  0.73460  0.75002  Biso   1.000  N  -0.210183
  N23      1.0000 0.83973  0.23460  0.74998  Biso   1.000  N  -0.210183
  N24      1.0000 0.16027  0.23460  0.75002  Biso   1.000  N  -0.210183
  O1       1.0000 0.24988  0.27758  0.67161  Biso   1.000  O  -0.579360
  O2       1.0000 0.75012  0.27758  0.82839  Biso   1.000  O  -0.579360
  O3       1.0000 0.74988  0.77758  0.67161  Biso   1.000  O  -0.579360
  O4       1.0000 0.25012  0.77758  0.82839  Biso   1.000  O  -0.579360
  O5       1.0000 0.75012  0.72242  0.32839  Biso   1.000  O  -0.579360
  O6       1.0000 0.24988  0.72242  0.17161  Biso   1.000  O  -0.579360
  O7       1.0000 0.25012  0.22242  0.32839  Biso   1.000  O  -0.579360
  O8       1.0000 0.74988  0.22242  0.17161  Biso   1.000  O  -0.579360
  O9       1.0000 0.20170  0.26232  0.57485  Biso   1.000  O  -0.544575
  O10      1.0000 0.79830  0.26232  0.92515  Biso   1.000  O  -0.544575
  O11      1.0000 0.70170  0.76232  0.57485  Biso   1.000  O  -0.544575
  O12      1.0000 0.29830  0.76232  0.92515  Biso   1.000  O  -0.544575
  O13      1.0000 0.79830  0.73768  0.42515  Biso   1.000  O  -0.544575
  O14      1.0000 0.20170  0.73768  0.07485  Biso   1.000  O  -0.544575
  O15      1.0000 0.29830  0.23768  0.42515  Biso   1.000  O  -0.544575
  O16      1.0000 0.70170  0.23768  0.07485  Biso   1.000  O  -0.544575
  O17      1.0000 0.65994  0.67230  0.63909  Biso   1.000  O  -0.590278
  O18      1.0000 0.34006  0.67230  0.86091  Biso   1.000  O  -0.590278
  O19      1.0000 0.15994  0.17230  0.63909  Biso   1.000  O  -0.590278
  O20      1.0000 0.84006  0.17230  0.86091  Biso   1.000  O  -0.590278
  O21      1.0000 0.34006  0.32770  0.36091  Biso   1.000  O  -0.590278
  O22      1.0000 0.65994  0.32770  0.13909  Biso   1.000  O  -0.590278
  O23      1.0000 0.84006  0.82770  0.36091  Biso   1.000  O  -0.590278
  O24      1.0000 0.15994  0.82770  0.13909  Biso   1.000  O  -0.590278
  O25      1.0000 0.53155  0.66939  0.62975  Biso   1.000  O  -0.519457
  O26      1.0000 0.46845  0.66939  0.87025  Biso   1.000  O  -0.519457
  O27      1.0000 0.03155  0.16939  0.62975  Biso   1.000  O  -0.519457
  O28      1.0000 0.96845  0.16939  0.87025  Biso   1.000  O  -0.519457
  O29      1.0000 0.46845  0.33061  0.37025  Biso   1.000  O  -0.519457
  O30      1.0000 0.53155  0.33061  0.12975  Biso   1.000  O  -0.519457
  O31      1.0000 0.96845  0.83061  0.37025  Biso   1.000  O  -0.519457
  O32      1.0000 0.03155  0.83061  0.12975  Biso   1.000  O  -0.519457
  Zn1      1.0000 0.15252  0.24005  0.65855  Biso   1.000  Zn  0.723982
  Zn2      1.0000 0.84748  0.24005  0.84145  Biso   1.000  Zn  0.723982
  Zn3      1.0000 0.65252  0.74005  0.65855  Biso   1.000  Zn  0.723982
  Zn4      1.0000 0.34748  0.74005  0.84145  Biso   1.000  Zn  0.723982
  Zn5      1.0000 0.84748  0.75995  0.34145  Biso   1.000  Zn  0.723982
  Zn6      1.0000 0.15252  0.75995  0.15855  Biso   1.000  Zn  0.723982
  Zn7      1.0000 0.34748  0.25995  0.34145  Biso   1.000  Zn  0.723982
  Zn8      1.0000 0.65252  0.25995  0.15855  Biso   1.000  Zn  0.723982
