
##########################################################################
#               Crystallographic Information Format file
#               Produced by PyCifRW module
#
#  This is a CIF file.  CIF has been adopted by the International
#  Union of Crystallography as the standard for data archiving and
#  transmission.
#
#  For information on this file format, follow the CIF links at
#  http://www.iucr.org
##########################################################################

data_image0

_cell_length_a                          14.6206
_cell_length_b                          14.6206
_cell_length_c                          14.6206
_cell_angle_alpha                       109.38
_cell_angle_beta                        109.38
_cell_angle_gamma                       109.38
_symmetry_space_group_name_H-M          'P 1'
_symmetry_int_tables_number             1
loop_
  _symmetry_equiv_pos_as_xyz
         'x, y, z' 
loop_
  _atom_site_label
  _atom_site_occupancy
  _atom_site_fract_x
  _atom_site_fract_y
  _atom_site_fract_z
  _atom_site_thermal_displace_type
  _atom_site_B_iso_or_equiv
  _atom_site_type_symbol
  _atom_site_charge
         C1        1.0000    0.41724   0.05048   0.55048   Biso      1.000     C          0.033186  
         C2        1.0000    0.58276   0.94952   0.44952   Biso      1.000     C          0.033186  
         C3        1.0000    0.51628   0.87589   0.47143   Biso      1.000     C          0.02364   
         C4        1.0000    0.41187   0.77005   0.39848   Biso      1.000     C          0.25806599999999996           
         C5        1.0000    0.55048   0.41724   0.05048   Biso      1.000     C          0.033188999999999996          
         C6        1.0000    0.52857   0.48372   0.12411   Biso      1.000     C          0.023644  
         C7        1.0000    0.65391   0.42923   0.05206   Biso      1.000     C          0.256824  
         C8        1.0000    0.77005   0.39848   0.41187   Biso      1.000     C          0.25806799999999996           
         C9        1.0000    0.60152   0.58813   0.22995   Biso      1.000     C          0.258067  
         C10       1.0000    0.12411   0.52857   0.48372   Biso      1.000     C          0.02364   
         C11       1.0000    0.05206   0.65391   0.42923   Biso      1.000     C          0.256822  
         C12       1.0000    0.22995   0.60152   0.58813   Biso      1.000     C          0.258065  
         C13       1.0000    0.48372   0.12411   0.52857   Biso      1.000     C          0.023644  
         C14       1.0000    0.42923   0.05206   0.65391   Biso      1.000     C          0.256822  
         C15       1.0000    0.58813   0.22995   0.60152   Biso      1.000     C          0.258067  
         C16       1.0000    0.05048   0.55048   0.41724   Biso      1.000     C          0.033188  
         C17       1.0000    0.94794   0.34609   0.57077   Biso      1.000     C          0.25682   
         C18       1.0000    0.57077   0.94794   0.34609   Biso      1.000     C          0.256822  
         C19       1.0000    0.94952   0.44952   0.58276   Biso      1.000     C          0.033186  
         C20       1.0000    0.39848   0.41187   0.77005   Biso      1.000     C          0.258065  
         C21       1.0000    0.34609   0.57077   0.94794   Biso      1.000     C          0.256823  
         C22       1.0000    0.47143   0.51628   0.87589   Biso      1.000     C          0.023639  
         C23       1.0000    0.87589   0.47143   0.51628   Biso      1.000     C          0.02364   
         C24       1.0000    0.44952   0.58276   0.94952   Biso      1.000     C          0.033188  
         H1        1.0000    0.69280   0.69430   0.06000   Biso      1.000     H          0.306344  
         H2        1.0000    0.06000   0.69280   0.69430   Biso      1.000     H          0.306346  
         H3        1.0000    0.69430   0.06000   0.69280   Biso      1.000     H          0.306346  
         H4        1.0000    0.94000   0.30720   0.30570   Biso      1.000     H          0.306344  
         H5        1.0000    0.30570   0.94000   0.30720   Biso      1.000     H          0.306344  
         H6        1.0000    0.30720   0.30570   0.94000   Biso      1.000     H          0.306341  
         N1        1.0000    0.66245   0.39063   0.96122   Biso      1.000     N          -0.23255399999999998          
         N2        1.0000    0.96178   0.45349   0.33293   Biso      1.000     N          -0.18490399999999999          
         N3        1.0000    0.98470   0.37770   0.35010   Biso      1.000     N          0.015138999999999998          
         N4        1.0000    0.75296   0.48022   0.14262   Biso      1.000     N          -0.25451999999999997          
         N5        1.0000    0.82499   0.47164   0.10467   Biso      1.000     N          -0.056826999999999996         
         N6        1.0000    0.77027   0.41854   0.99679   Biso      1.000     N          -0.052579999999999995         
         N7        1.0000    0.70367   0.62106   0.30697   Biso      1.000     N          -0.24438000000000001          
         N8        1.0000    0.41771   0.43893   0.07966   Biso      1.000     N          -0.178174           
         N9        1.0000    0.51978   0.85738   0.24704   Biso      1.000     N          -0.25451999999999997          
         N10       1.0000    0.45349   0.33293   0.96178   Biso      1.000     N          -0.18491  
         N11       1.0000    0.37770   0.35010   0.98470   Biso      1.000     N          0.015181  
         N12       1.0000    0.65950   0.74620   0.36820   Biso      1.000     N          -0.06365599999999999          
         N13       1.0000    0.57280   0.66479   0.26541   Biso      1.000     N          -0.24642600000000003          
         N14       1.0000    0.07966   0.41771   0.43893   Biso      1.000     N          -0.178135           
         N15       1.0000    0.73730   0.72030   0.39310   Biso      1.000     N          -0.048458999999999995         
         N16       1.0000    0.26541   0.57280   0.66479   Biso      1.000     N          -0.246446           
         N17       1.0000    0.73459   0.42720   0.33521   Biso      1.000     N          -0.246442           
         N18       1.0000    0.39310   0.73730   0.72030   Biso      1.000     N          -0.048514999999999996         
         N19       1.0000    0.41854   0.99679   0.77027   Biso      1.000     N          -0.052615999999999996         
         N20       1.0000    0.39063   0.96122   0.66245   Biso      1.000     N          -0.232528           
         N21       1.0000    0.62106   0.30697   0.70367   Biso      1.000     N          -0.244376           
         N22       1.0000    0.72030   0.39310   0.73730   Biso      1.000     N          -0.048496           
         N23       1.0000    0.74620   0.36820   0.65950   Biso      1.000     N          -0.06361900000000001          
         N24       1.0000    0.52836   0.89533   0.17501   Biso      1.000     N          -0.056823           
         N25       1.0000    0.66479   0.26541   0.57280   Biso      1.000     N          -0.24643  
         N26       1.0000    0.43893   0.07966   0.41771   Biso      1.000     N          -0.178171           
         N27       1.0000    0.35010   0.98470   0.37770   Biso      1.000     N          0.01515   
         N28       1.0000    0.33293   0.96178   0.45349   Biso      1.000     N          -0.18488  
         N29       1.0000    0.14262   0.75296   0.48022   Biso      1.000     N          -0.25451999999999997          
         N30       1.0000    0.10467   0.82499   0.47164   Biso      1.000     N          -0.056824           
         N31       1.0000    0.99679   0.77027   0.41854   Biso      1.000     N          -0.052601999999999996         
         N32       1.0000    0.96122   0.66245   0.39063   Biso      1.000     N          -0.23253000000000001          
         N33       1.0000    0.30697   0.70367   0.62106   Biso      1.000     N          -0.244356           
         N34       1.0000    0.36820   0.65950   0.74620   Biso      1.000     N          -0.06360199999999999          
         N35       1.0000    0.58146   0.00321   0.22973   Biso      1.000     N          -0.052601999999999996         
         N36       1.0000    0.48022   0.14262   0.75296   Biso      1.000     N          -0.25452199999999997          
         N37       1.0000    0.37894   0.69303   0.29633   Biso      1.000     N          -0.244376           
         N38       1.0000    0.54651   0.66707   0.03822   Biso      1.000     N          -0.18490399999999999          
         N39       1.0000    0.62230   0.64990   0.01530   Biso      1.000     N          0.015137999999999999          
         N40       1.0000    0.58229   0.56107   0.92034   Biso      1.000     N          -0.178135           
         N41       1.0000    0.42720   0.33521   0.73459   Biso      1.000     N          -0.246442           
         N42       1.0000    0.34050   0.25380   0.63180   Biso      1.000     N          -0.063639           
         N43       1.0000    0.26270   0.27970   0.60690   Biso      1.000     N          -0.048479           
         N44       1.0000    0.29633   0.37894   0.69303   Biso      1.000     N          -0.24436100000000002          
         N45       1.0000    0.33755   0.60937   0.03878   Biso      1.000     N          -0.23255100000000004          
         N46       1.0000    0.22973   0.58146   0.00321   Biso      1.000     N          -0.052592999999999994         
         N47       1.0000    0.17501   0.52836   0.89533   Biso      1.000     N          -0.056822000000000004         
         N48       1.0000    0.24704   0.51978   0.85738   Biso      1.000     N          -0.254511           
         N49       1.0000    0.60937   0.03878   0.33755   Biso      1.000     N          -0.23252899999999999          
         N50       1.0000    0.01530   0.62230   0.64990   Biso      1.000     N          0.015108000000000002          
         N51       1.0000    0.92034   0.58229   0.56107   Biso      1.000     N          -0.17813199999999998          
         N52       1.0000    0.03822   0.54651   0.66707   Biso      1.000     N          -0.184875           
         N53       1.0000    0.63180   0.34050   0.25380   Biso      1.000     N          -0.06364199999999999          
         N54       1.0000    0.27970   0.60690   0.26270   Biso      1.000     N          -0.048496           
         N55       1.0000    0.25380   0.63180   0.34050   Biso      1.000     N          -0.06361900000000001          
         N56       1.0000    0.33521   0.73459   0.42720   Biso      1.000     N          -0.24643099999999998          
         N57       1.0000    0.47164   0.10467   0.82499   Biso      1.000     N          -0.056808000000000004         
         N58       1.0000    0.64990   0.01530   0.62230   Biso      1.000     N          0.015108000000000002          
         N59       1.0000    0.66707   0.03822   0.54651   Biso      1.000     N          -0.184875           
         N60       1.0000    0.56107   0.92034   0.58229   Biso      1.000     N          -0.17813199999999998          
         N61       1.0000    0.89533   0.17501   0.52836   Biso      1.000     N          -0.056834           
         N62       1.0000    0.00321   0.22973   0.58146   Biso      1.000     N          -0.0526   
         N63       1.0000    0.03878   0.33755   0.60937   Biso      1.000     N          -0.23253000000000001          
         N64       1.0000    0.69303   0.29633   0.37894   Biso      1.000     N          -0.24438000000000001          
         N65       1.0000    0.60690   0.26270   0.27970   Biso      1.000     N          -0.048461000000000004         
         N66       1.0000    0.85738   0.24704   0.51978   Biso      1.000     N          -0.25450900000000004          
         Zn1       1.0000    0.55036   0.30648   0.80078   Biso      1.000     Zn          0.669242  
         Zn2       1.0000    0.30648   0.80078   0.55036   Biso      1.000     Zn          0.669234  
         Zn3       1.0000    0.80078   0.55036   0.30648   Biso      1.000     Zn          0.669239  
         Zn4       1.0000    0.44964   0.69352   0.19922   Biso      1.000     Zn          0.66924   
         Zn5       1.0000    0.69352   0.19922   0.44964   Biso      1.000     Zn          0.669235  
         Zn6       1.0000    0.19922   0.44964   0.69352   Biso      1.000     Zn          0.669235 