data_image0
_cell_length_a       18.8163
_cell_length_b       18.8163
_cell_length_c       38.079
_cell_angle_alpha    90
_cell_angle_beta     90
_cell_angle_gamma    120

_symmetry_space_group_name_H-M    "P 1"
_symmetry_int_tables_number       1

loop_
  _symmetry_equiv_pos_as_xyz
  'x, y, z'

loop_
  _atom_site_label
  _atom_site_occupancy
  _atom_site_fract_x
  _atom_site_fract_y
  _atom_site_fract_z
  _atom_site_thermal_displace_type
  _atom_site_B_iso_or_equiv
  _atom_site_type_symbol
  _atom_site_charge
  C1       1.0000 0.09450  0.45550  0.97384  Biso   1.000  C  0.592531
  C2       1.0000 0.15310  0.43370  0.95653  Biso   1.000  C  -0.001556
  C3       1.0000 0.13860  0.40470  0.92186  Biso   1.000  C  -0.129958
  C4       1.0000 0.10280  0.31190  0.85570  Biso   1.000  C  0.011524
  C5       1.0000 0.13910  0.38510  0.84580  Biso   1.000  C  -0.253486
  C6       1.0000 0.76117  0.78883  0.30717  Biso   1.000  C  0.591393
  C7       1.0000 0.81977  0.76703  0.28986  Biso   1.000  C  0.001435
  C8       1.0000 0.80527  0.73803  0.25519  Biso   1.000  C  -0.129943
  C9       1.0000 0.76947  0.64523  0.18903  Biso   1.000  C  0.011233
  C10      1.0000 0.80577  0.71843  0.17913  Biso   1.000  C  -0.253703
  C11      1.0000 0.42783  0.12217  0.64051  Biso   1.000  C  0.591447
  C12      1.0000 0.48643  0.10037  0.62320  Biso   1.000  C  0.001457
  C13      1.0000 0.47193  0.07137  0.58853  Biso   1.000  C  -0.130519
  C14      1.0000 0.43613  0.97857  0.52237  Biso   1.000  C  0.011145
  C15      1.0000 0.47243  0.05177  0.51247  Biso   1.000  C  -0.253458
  C16      1.0000 0.54450  0.63900  0.97384  Biso   1.000  C  0.591433
  C17      1.0000 0.56630  0.71940  0.95653  Biso   1.000  C  0.001594
  C18      1.0000 0.59530  0.73390  0.92186  Biso   1.000  C  -0.130372
  C19      1.0000 0.68810  0.79090  0.85570  Biso   1.000  C  0.011848
  C20      1.0000 0.61490  0.75400  0.84580  Biso   1.000  C  -0.253071
  C21      1.0000 0.21117  0.97233  0.30717  Biso   1.000  C  0.591395
  C22      1.0000 0.23297  0.05273  0.28986  Biso   1.000  C  0.001357
  C23      1.0000 0.26197  0.06723  0.25519  Biso   1.000  C  -0.130048
  C24      1.0000 0.35477  0.12423  0.18903  Biso   1.000  C  0.011319
  C25      1.0000 0.28157  0.08733  0.17913  Biso   1.000  C  -0.253510
  C26      1.0000 0.87783  0.30567  0.64051  Biso   1.000  C  0.591638
  C27      1.0000 0.89963  0.38607  0.62320  Biso   1.000  C  0.001730
  C28      1.0000 0.92863  0.40057  0.58853  Biso   1.000  C  -0.129688
  C29      1.0000 0.02143  0.45757  0.52237  Biso   1.000  C  0.011072
  C30      1.0000 0.94823  0.42067  0.51247  Biso   1.000  C  -0.253855
  C31      1.0000 0.36100  0.90550  0.97384  Biso   1.000  C  0.591452
  C32      1.0000 0.28060  0.84690  0.95653  Biso   1.000  C  0.001357
  C33      1.0000 0.26610  0.86140  0.92186  Biso   1.000  C  -0.130530
  C34      1.0000 0.20910  0.89720  0.85570  Biso   1.000  C  0.011828
  C35      1.0000 0.24600  0.86090  0.84580  Biso   1.000  C  -0.253220
  C36      1.0000 0.02767  0.23883  0.30717  Biso   1.000  C  0.591339
  C37      1.0000 0.94727  0.18023  0.28986  Biso   1.000  C  0.001602
  C38      1.0000 0.93277  0.19473  0.25519  Biso   1.000  C  -0.130185
  C39      1.0000 0.87577  0.23053  0.18903  Biso   1.000  C  0.011349
  C40      1.0000 0.91267  0.19423  0.17913  Biso   1.000  C  -0.253540
  C41      1.0000 0.69433  0.57217  0.64051  Biso   1.000  C  0.588245
  C42      1.0000 0.61393  0.51357  0.62320  Biso   1.000  C  0.004505
  C43      1.0000 0.59943  0.52807  0.58853  Biso   1.000  C  -0.130714
  C44      1.0000 0.54243  0.56387  0.52237  Biso   1.000  C  0.011061
  C45      1.0000 0.57933  0.52757  0.51247  Biso   1.000  C  -0.253843
  C46      1.0000 0.45550  0.09450  0.02616  Biso   1.000  C  0.590670
  C47      1.0000 0.43370  0.15310  0.04347  Biso   1.000  C  0.004089
  C48      1.0000 0.40470  0.13860  0.07814  Biso   1.000  C  -0.142914
  C49      1.0000 0.31190  0.10280  0.14430  Biso   1.000  C  0.102424
  C50      1.0000 0.12217  0.42783  0.35949  Biso   1.000  C  0.590663
  C51      1.0000 0.10037  0.48643  0.37680  Biso   1.000  C  0.004210
  C52      1.0000 0.07137  0.47193  0.41147  Biso   1.000  C  -0.143209
  C53      1.0000 0.97857  0.43613  0.47763  Biso   1.000  C  0.102554
  C54      1.0000 0.78883  0.76117  0.69283  Biso   1.000  C  0.587208
  C55      1.0000 0.76703  0.81977  0.71014  Biso   1.000  C  0.007450
  C56      1.0000 0.73803  0.80527  0.74481  Biso   1.000  C  -0.143130
  C57      1.0000 0.64523  0.76947  0.81097  Biso   1.000  C  0.102094
  C58      1.0000 0.63900  0.54450  0.02616  Biso   1.000  C  0.590674
  C59      1.0000 0.71940  0.56630  0.04347  Biso   1.000  C  0.003865
  C60      1.0000 0.73390  0.59530  0.07814  Biso   1.000  C  -0.143066
  C61      1.0000 0.79090  0.68810  0.14430  Biso   1.000  C  0.102623
  C62      1.0000 0.30567  0.87783  0.35949  Biso   1.000  C  0.590838
  C63      1.0000 0.38607  0.89963  0.37680  Biso   1.000  C  0.004006
  C64      1.0000 0.40057  0.92863  0.41147  Biso   1.000  C  -0.142757
  C65      1.0000 0.45757  0.02143  0.47763  Biso   1.000  C  0.102576
  C66      1.0000 0.97233  0.21117  0.69283  Biso   1.000  C  0.590581
  C67      1.0000 0.05273  0.23297  0.71014  Biso   1.000  C  0.003866
  C68      1.0000 0.06723  0.26197  0.74481  Biso   1.000  C  -0.142632
  C69      1.0000 0.12423  0.35477  0.81097  Biso   1.000  C  0.102004
  C70      1.0000 0.90550  0.36100  0.02616  Biso   1.000  C  0.591743
  C71      1.0000 0.84690  0.28060  0.04347  Biso   1.000  C  0.001001
  C72      1.0000 0.86140  0.26610  0.07814  Biso   1.000  C  -0.142510
  C73      1.0000 0.89720  0.20910  0.14430  Biso   1.000  C  0.102348
  C74      1.0000 0.57217  0.69433  0.35949  Biso   1.000  C  0.590842
  C75      1.0000 0.51357  0.61393  0.37680  Biso   1.000  C  0.003832
  C76      1.0000 0.52807  0.59943  0.41147  Biso   1.000  C  -0.142812
  C77      1.0000 0.56387  0.54243  0.47763  Biso   1.000  C  0.102586
  C78      1.0000 0.23883  0.02767  0.69283  Biso   1.000  C  0.590539
  C79      1.0000 0.18023  0.94727  0.71014  Biso   1.000  C  0.004596
  C80      1.0000 0.19473  0.93277  0.74481  Biso   1.000  C  -0.142398
  C81      1.0000 0.23053  0.87577  0.81097  Biso   1.000  C  0.101934
  C82      1.0000 0.90550  0.54450  0.02616  Biso   1.000  C  0.592556
  C83      1.0000 0.84690  0.56630  0.04347  Biso   1.000  C  -0.001646
  C84      1.0000 0.86140  0.59530  0.07814  Biso   1.000  C  -0.129910
  C85      1.0000 0.89720  0.68810  0.14430  Biso   1.000  C  0.011338
  C86      1.0000 0.86090  0.61490  0.15420  Biso   1.000  C  -0.253612
  C87      1.0000 0.57217  0.87783  0.35949  Biso   1.000  C  0.591436
  C88      1.0000 0.51357  0.89963  0.37680  Biso   1.000  C  0.001596
  C89      1.0000 0.52807  0.92863  0.41147  Biso   1.000  C  -0.130600
  C90      1.0000 0.56387  0.02143  0.47763  Biso   1.000  C  0.011429
  C91      1.0000 0.52757  0.94823  0.48753  Biso   1.000  C  -0.253179
  C92      1.0000 0.23883  0.21117  0.69283  Biso   1.000  C  0.591389
  C93      1.0000 0.18023  0.23297  0.71014  Biso   1.000  C  0.001360
  C94      1.0000 0.19473  0.26197  0.74481  Biso   1.000  C  -0.129910
  C95      1.0000 0.23053  0.35477  0.81097  Biso   1.000  C  0.011154
  C96      1.0000 0.19423  0.28157  0.82087  Biso   1.000  C  -0.253840
  C97      1.0000 0.45550  0.36100  0.02616  Biso   1.000  C  0.591457
  C98      1.0000 0.43370  0.28060  0.04347  Biso   1.000  C  0.001495
  C99      1.0000 0.40470  0.26610  0.07814  Biso   1.000  C  -0.130325
  C100     1.0000 0.31190  0.20910  0.14430  Biso   1.000  C  0.011456
  C101     1.0000 0.38510  0.24600  0.15420  Biso   1.000  C  -0.253430
  C102     1.0000 0.12217  0.69433  0.35949  Biso   1.000  C  0.591633
  C103     1.0000 0.10037  0.61393  0.37680  Biso   1.000  C  0.001430
  C104     1.0000 0.07137  0.59943  0.41147  Biso   1.000  C  -0.130138
  C105     1.0000 0.97857  0.54243  0.47763  Biso   1.000  C  0.011672
  C106     1.0000 0.05177  0.57933  0.48753  Biso   1.000  C  -0.253368
  C107     1.0000 0.78883  0.02767  0.69283  Biso   1.000  C  0.591378
  C108     1.0000 0.76703  0.94727  0.71014  Biso   1.000  C  0.001754
  C109     1.0000 0.73803  0.93277  0.74481  Biso   1.000  C  -0.129651
  C110     1.0000 0.64523  0.87577  0.81097  Biso   1.000  C  0.011110
  C111     1.0000 0.71843  0.91267  0.82087  Biso   1.000  C  -0.253639
  C112     1.0000 0.63900  0.09450  0.02616  Biso   1.000  C  0.591435
  C113     1.0000 0.71940  0.15310  0.04347  Biso   1.000  C  0.001277
  C114     1.0000 0.73390  0.13860  0.07814  Biso   1.000  C  -0.130458
  C115     1.0000 0.79090  0.10280  0.14430  Biso   1.000  C  0.011583
  C116     1.0000 0.75400  0.13910  0.15420  Biso   1.000  C  -0.253472
  C117     1.0000 0.30567  0.42783  0.35949  Biso   1.000  C  0.591647
  C118     1.0000 0.38607  0.48643  0.37680  Biso   1.000  C  0.001211
  C119     1.0000 0.40057  0.47193  0.41147  Biso   1.000  C  -0.130240
  C120     1.0000 0.45757  0.43613  0.47763  Biso   1.000  C  0.011452
  C121     1.0000 0.42067  0.47243  0.48753  Biso   1.000  C  -0.253474
  C122     1.0000 0.97233  0.76117  0.69283  Biso   1.000  C  0.587920
  C123     1.0000 0.05273  0.81977  0.71014  Biso   1.000  C  0.004976
  C124     1.0000 0.06723  0.80527  0.74481  Biso   1.000  C  -0.130717
  C125     1.0000 0.12423  0.76947  0.81097  Biso   1.000  C  0.011190
  C126     1.0000 0.08733  0.80577  0.82087  Biso   1.000  C  -0.253669
  C127     1.0000 0.54450  0.90550  0.97384  Biso   1.000  C  0.590651
  C128     1.0000 0.56630  0.84690  0.95653  Biso   1.000  C  0.004182
  C129     1.0000 0.59530  0.86140  0.92186  Biso   1.000  C  -0.142964
  C130     1.0000 0.68810  0.89720  0.85570  Biso   1.000  C  0.102719
  C131     1.0000 0.21117  0.23883  0.30717  Biso   1.000  C  0.590623
  C132     1.0000 0.23297  0.18023  0.28986  Biso   1.000  C  0.004053
  C133     1.0000 0.26197  0.19473  0.25519  Biso   1.000  C  -0.142589
  C134     1.0000 0.35477  0.23053  0.18903  Biso   1.000  C  0.102260
  C135     1.0000 0.87783  0.57217  0.64051  Biso   1.000  C  0.587263
  C136     1.0000 0.89963  0.51357  0.62320  Biso   1.000  C  0.007515
  C137     1.0000 0.92863  0.52807  0.58853  Biso   1.000  C  -0.143712
  C138     1.0000 0.02143  0.56387  0.52237  Biso   1.000  C  0.102095
  C139     1.0000 0.36100  0.45550  0.97384  Biso   1.000  C  0.590625
  C140     1.0000 0.28060  0.43370  0.95653  Biso   1.000  C  0.003929
  C141     1.0000 0.26610  0.40470  0.92186  Biso   1.000  C  -0.143091
  C142     1.0000 0.20910  0.31190  0.85570  Biso   1.000  C  0.102791
  C143     1.0000 0.02767  0.78883  0.30717  Biso   1.000  C  0.590596
  C144     1.0000 0.94727  0.76703  0.28986  Biso   1.000  C  0.003934
  C145     1.0000 0.93277  0.73803  0.25519  Biso   1.000  C  -0.142668
  C146     1.0000 0.87577  0.64523  0.18903  Biso   1.000  C  0.102165
  C147     1.0000 0.69433  0.12217  0.64051  Biso   1.000  C  0.590836
  C148     1.0000 0.61393  0.10037  0.62320  Biso   1.000  C  0.003875
  C149     1.0000 0.59943  0.07137  0.58853  Biso   1.000  C  -0.142682
  C150     1.0000 0.54243  0.97857  0.52237  Biso   1.000  C  0.102235
  C151     1.0000 0.09450  0.63900  0.97384  Biso   1.000  C  0.591737
  C152     1.0000 0.15310  0.71940  0.95653  Biso   1.000  C  0.001062
  C153     1.0000 0.13860  0.73390  0.92186  Biso   1.000  C  -0.142549
  C154     1.0000 0.10280  0.79090  0.85570  Biso   1.000  C  0.102659
  C155     1.0000 0.76117  0.97233  0.30717  Biso   1.000  C  0.590533
  C156     1.0000 0.81977  0.05273  0.28986  Biso   1.000  C  0.004222
  C157     1.0000 0.80527  0.06723  0.25519  Biso   1.000  C  -0.142774
  C158     1.0000 0.76947  0.12423  0.18903  Biso   1.000  C  0.102335
  C159     1.0000 0.42783  0.30567  0.64051  Biso   1.000  C  0.590868
  C160     1.0000 0.48643  0.38607  0.62320  Biso   1.000  C  0.004125
  C161     1.0000 0.47193  0.40057  0.58853  Biso   1.000  C  -0.142397
  C162     1.0000 0.43613  0.45757  0.52237  Biso   1.000  C  0.101896
  C163     1.0000 0.22440  0.44880  0.97350  Biso   1.000  C  -0.114912
  C164     1.0000 0.19445  0.38890  0.90460  Biso   1.000  C  0.062132
  C165     1.0000 0.18100  0.36200  0.86730  Biso   1.000  C  0.188424
  C166     1.0000 0.89107  0.78213  0.30683  Biso   1.000  C  -0.115375
  C167     1.0000 0.86112  0.72223  0.23793  Biso   1.000  C  0.062066
  C168     1.0000 0.84767  0.69533  0.20063  Biso   1.000  C  0.188520
  C169     1.0000 0.55773  0.11547  0.64017  Biso   1.000  C  -0.115473
  C170     1.0000 0.52778  0.05557  0.57127  Biso   1.000  C  0.062800
  C171     1.0000 0.51433  0.02867  0.53397  Biso   1.000  C  0.188256
  C172     1.0000 0.55120  0.77560  0.97350  Biso   1.000  C  -0.115344
  C173     1.0000 0.61110  0.80555  0.90460  Biso   1.000  C  0.062252
  C174     1.0000 0.63800  0.81900  0.86730  Biso   1.000  C  0.188409
  C175     1.0000 0.21787  0.10893  0.30683  Biso   1.000  C  -0.115378
  C176     1.0000 0.27777  0.13888  0.23793  Biso   1.000  C  0.062035
  C177     1.0000 0.30467  0.15233  0.20063  Biso   1.000  C  0.188456
  C178     1.0000 0.88453  0.44227  0.64017  Biso   1.000  C  -0.116082
  C179     1.0000 0.94443  0.47222  0.57127  Biso   1.000  C  0.063205
  C180     1.0000 0.97133  0.48567  0.53397  Biso   1.000  C  0.188376
  C181     1.0000 0.22440  0.77560  0.97350  Biso   1.000  C  -0.114906
  C182     1.0000 0.19445  0.80555  0.90460  Biso   1.000  C  0.062066
  C183     1.0000 0.18100  0.81900  0.86730  Biso   1.000  C  0.188406
  C184     1.0000 0.89107  0.10893  0.30683  Biso   1.000  C  -0.115253
  C185     1.0000 0.86112  0.13888  0.23793  Biso   1.000  C  0.062129
  C186     1.0000 0.84767  0.15233  0.20063  Biso   1.000  C  0.188389
  C187     1.0000 0.55773  0.44227  0.64017  Biso   1.000  C  -0.115716
  C188     1.0000 0.52778  0.47222  0.57127  Biso   1.000  C  0.062487
  C189     1.0000 0.51433  0.48567  0.53397  Biso   1.000  C  0.189147
  C190     1.0000 0.44880  0.22440  0.02650  Biso   1.000  C  -0.115436
  C191     1.0000 0.38890  0.19445  0.09540  Biso   1.000  C  0.062398
  C192     1.0000 0.36200  0.18100  0.13270  Biso   1.000  C  0.188430
  C193     1.0000 0.11547  0.55773  0.35983  Biso   1.000  C  -0.115364
  C194     1.0000 0.05557  0.52778  0.42873  Biso   1.000  C  0.062533
  C195     1.0000 0.02867  0.51433  0.46603  Biso   1.000  C  0.188392
  C196     1.0000 0.78213  0.89107  0.69317  Biso   1.000  C  -0.116000
  C197     1.0000 0.72223  0.86112  0.76207  Biso   1.000  C  0.062561
  C198     1.0000 0.69533  0.84767  0.79937  Biso   1.000  C  0.188418
  C199     1.0000 0.77560  0.55120  0.02650  Biso   1.000  C  -0.114992
  C200     1.0000 0.80555  0.61110  0.09540  Biso   1.000  C  0.062202
  C201     1.0000 0.81900  0.63800  0.13270  Biso   1.000  C  0.188417
  C202     1.0000 0.44227  0.88453  0.35983  Biso   1.000  C  -0.115370
  C203     1.0000 0.47222  0.94443  0.42873  Biso   1.000  C  0.062617
  C204     1.0000 0.48567  0.97133  0.46603  Biso   1.000  C  0.188281
  C205     1.0000 0.10893  0.21787  0.69317  Biso   1.000  C  -0.115417
  C206     1.0000 0.13888  0.27777  0.76207  Biso   1.000  C  0.062159
  C207     1.0000 0.15233  0.30467  0.79937  Biso   1.000  C  0.188498
  C208     1.0000 0.77560  0.22440  0.02650  Biso   1.000  C  -0.114968
  C209     1.0000 0.80555  0.19445  0.09540  Biso   1.000  C  0.062210
  C210     1.0000 0.81900  0.18100  0.13270  Biso   1.000  C  0.188426
  C211     1.0000 0.44227  0.55773  0.35983  Biso   1.000  C  -0.114966
  C212     1.0000 0.47222  0.52778  0.42873  Biso   1.000  C  0.061825
  C213     1.0000 0.48567  0.51433  0.46603  Biso   1.000  C  0.189157
  C214     1.0000 0.10893  0.89107  0.69317  Biso   1.000  C  -0.115923
  C215     1.0000 0.13888  0.86112  0.76207  Biso   1.000  C  0.062663
  C216     1.0000 0.15233  0.84767  0.79937  Biso   1.000  C  0.188366
  Cu1      1.0000 0.04598  0.52299  0.02875  Biso   1.000  Cu  0.883813
  Cu2      1.0000 0.71265  0.85632  0.36208  Biso   1.000  Cu  0.876830
  Cu3      1.0000 0.37931  0.18966  0.69542  Biso   1.000  Cu  0.877034
  Cu4      1.0000 0.47701  0.52299  0.02875  Biso   1.000  Cu  0.877044
  Cu5      1.0000 0.14368  0.85632  0.36208  Biso   1.000  Cu  0.876656
  Cu6      1.0000 0.81034  0.18966  0.69542  Biso   1.000  Cu  0.877337
  Cu7      1.0000 0.47701  0.95402  0.02875  Biso   1.000  Cu  0.876736
  Cu8      1.0000 0.14368  0.28735  0.36208  Biso   1.000  Cu  0.876931
  Cu9      1.0000 0.81034  0.62069  0.69542  Biso   1.000  Cu  0.852090
  Cu10     1.0000 0.52299  0.04598  0.97125  Biso   1.000  Cu  0.876896
  Cu11     1.0000 0.18966  0.37931  0.30458  Biso   1.000  Cu  0.876829
  Cu12     1.0000 0.85632  0.71265  0.63792  Biso   1.000  Cu  0.852356
  Cu13     1.0000 0.52299  0.47701  0.97125  Biso   1.000  Cu  0.876520
  Cu14     1.0000 0.18966  0.81034  0.30458  Biso   1.000  Cu  0.877146
  Cu15     1.0000 0.85632  0.14368  0.63792  Biso   1.000  Cu  0.877023
  Cu16     1.0000 0.95402  0.47701  0.97125  Biso   1.000  Cu  0.883632
  Cu17     1.0000 0.62069  0.81034  0.30458  Biso   1.000  Cu  0.876799
  Cu18     1.0000 0.28735  0.14368  0.63792  Biso   1.000  Cu  0.877274
  H1       1.0000 0.09130  0.39600  0.91030  Biso   1.000  H  0.132599
  H2       1.0000 0.75797  0.72933  0.24363  Biso   1.000  H  0.132731
  H3       1.0000 0.42463  0.06267  0.57697  Biso   1.000  H  0.133040
  H4       1.0000 0.60400  0.69530  0.91030  Biso   1.000  H  0.132836
  H5       1.0000 0.27067  0.02863  0.24363  Biso   1.000  H  0.132889
  H6       1.0000 0.93733  0.36197  0.57697  Biso   1.000  H  0.133029
  H7       1.0000 0.30470  0.90870  0.91030  Biso   1.000  H  0.132787
  H8       1.0000 0.97137  0.24203  0.24363  Biso   1.000  H  0.132830
  H9       1.0000 0.63803  0.57537  0.57697  Biso   1.000  H  0.133367
  H10      1.0000 0.39600  0.09130  0.08970  Biso   1.000  H  0.132249
  H11      1.0000 0.06267  0.42463  0.42303  Biso   1.000  H  0.132362
  H12      1.0000 0.72933  0.75797  0.75637  Biso   1.000  H  0.132437
  H13      1.0000 0.69530  0.60400  0.08970  Biso   1.000  H  0.132200
  H14      1.0000 0.36197  0.93733  0.42303  Biso   1.000  H  0.132258
  H15      1.0000 0.02863  0.27067  0.75637  Biso   1.000  H  0.132313
  H16      1.0000 0.90870  0.30470  0.08970  Biso   1.000  H  0.132016
  H17      1.0000 0.57537  0.63803  0.42303  Biso   1.000  H  0.132436
  H18      1.0000 0.24203  0.97137  0.75637  Biso   1.000  H  0.132372
  H19      1.0000 0.90870  0.60400  0.08970  Biso   1.000  H  0.132615
  H20      1.0000 0.57537  0.93733  0.42303  Biso   1.000  H  0.132989
  H21      1.0000 0.24203  0.27067  0.75637  Biso   1.000  H  0.132756
  H22      1.0000 0.39600  0.30470  0.08970  Biso   1.000  H  0.132852
  H23      1.0000 0.06267  0.63803  0.42303  Biso   1.000  H  0.132862
  H24      1.0000 0.72933  0.97137  0.75637  Biso   1.000  H  0.133037
  H25      1.0000 0.69530  0.09130  0.08970  Biso   1.000  H  0.132832
  H26      1.0000 0.36197  0.42463  0.42303  Biso   1.000  H  0.133034
  H27      1.0000 0.02863  0.75797  0.75637  Biso   1.000  H  0.133129
  H28      1.0000 0.60400  0.90870  0.91030  Biso   1.000  H  0.132219
  H29      1.0000 0.27067  0.24203  0.24363  Biso   1.000  H  0.132111
  H30      1.0000 0.93733  0.57537  0.57697  Biso   1.000  H  0.132713
  H31      1.0000 0.30470  0.39600  0.91030  Biso   1.000  H  0.132189
  H32      1.0000 0.97137  0.72933  0.24363  Biso   1.000  H  0.132281
  H33      1.0000 0.63803  0.06267  0.57697  Biso   1.000  H  0.132312
  H34      1.0000 0.09130  0.69530  0.91030  Biso   1.000  H  0.131983
  H35      1.0000 0.75797  0.02863  0.24363  Biso   1.000  H  0.132234
  H36      1.0000 0.42463  0.36197  0.57697  Biso   1.000  H  0.132602
  H37      1.0000 0.23460  0.46920  0.99630  Biso   1.000  H  0.139547
  H38      1.0000 0.90127  0.80253  0.32963  Biso   1.000  H  0.139651
  H39      1.0000 0.56793  0.13587  0.66297  Biso   1.000  H  0.139681
  H40      1.0000 0.53080  0.76540  0.99630  Biso   1.000  H  0.139819
  H41      1.0000 0.19747  0.09873  0.32963  Biso   1.000  H  0.139666
  H42      1.0000 0.86413  0.43207  0.66297  Biso   1.000  H  0.140005
  H43      1.0000 0.23460  0.76540  0.99630  Biso   1.000  H  0.139564
  H44      1.0000 0.90127  0.09873  0.32963  Biso   1.000  H  0.139637
  H45      1.0000 0.56793  0.43207  0.66297  Biso   1.000  H  0.139949
  H46      1.0000 0.46920  0.23460  0.00370  Biso   1.000  H  0.139727
  H47      1.0000 0.13587  0.56793  0.33703  Biso   1.000  H  0.139738
  H48      1.0000 0.80253  0.90127  0.67037  Biso   1.000  H  0.140025
  H49      1.0000 0.76540  0.53080  0.00370  Biso   1.000  H  0.139459
  H50      1.0000 0.43207  0.86413  0.33703  Biso   1.000  H  0.139723
  H51      1.0000 0.09873  0.19747  0.67037  Biso   1.000  H  0.139687
  H52      1.0000 0.76540  0.23460  0.00370  Biso   1.000  H  0.139494
  H53      1.0000 0.43207  0.56793  0.33703  Biso   1.000  H  0.139674
  H54      1.0000 0.09873  0.90127  0.67037  Biso   1.000  H  0.139993
  N1       1.0000 0.08733  0.28157  0.82087  Biso   1.000  N  -0.086946
  N2       1.0000 0.75400  0.61490  0.15420  Biso   1.000  N  -0.086786
  N3       1.0000 0.42067  0.94823  0.48753  Biso   1.000  N  -0.086969
  N4       1.0000 0.71843  0.80577  0.82087  Biso   1.000  N  -0.086922
  N5       1.0000 0.38510  0.13910  0.15420  Biso   1.000  N  -0.086805
  N6       1.0000 0.05177  0.47243  0.48753  Biso   1.000  N  -0.086647
  N7       1.0000 0.19423  0.91267  0.82087  Biso   1.000  N  -0.086931
  N8       1.0000 0.86090  0.24600  0.15420  Biso   1.000  N  -0.086919
  N9       1.0000 0.52757  0.57933  0.48753  Biso   1.000  N  -0.086869
  N10      1.0000 0.91267  0.71843  0.17913  Biso   1.000  N  -0.086837
  N11      1.0000 0.57933  0.05177  0.51247  Biso   1.000  N  -0.087127
  N12      1.0000 0.24600  0.38510  0.84580  Biso   1.000  N  -0.086744
  N13      1.0000 0.28157  0.19423  0.17913  Biso   1.000  N  -0.086856
  N14      1.0000 0.94823  0.52757  0.51247  Biso   1.000  N  -0.086857
  N15      1.0000 0.61490  0.86090  0.84580  Biso   1.000  N  -0.086662
  N16      1.0000 0.80577  0.08733  0.17913  Biso   1.000  N  -0.086763
  N17      1.0000 0.47243  0.42067  0.51247  Biso   1.000  N  -0.087162
  N18      1.0000 0.13910  0.75400  0.84580  Biso   1.000  N  -0.086784
  O1       1.0000 0.11150  0.48300  0.00459  Biso   1.000  O  -0.517123
  O2       1.0000 0.03190  0.44460  0.95591  Biso   1.000  O  -0.535977
  O3       1.0000 0.77817  0.81633  0.33792  Biso   1.000  O  -0.516452
  O4       1.0000 0.69857  0.77793  0.28924  Biso   1.000  O  -0.535486
  O5       1.0000 0.44483  0.14967  0.67126  Biso   1.000  O  -0.516151
  O6       1.0000 0.36523  0.11127  0.62258  Biso   1.000  O  -0.535841
  O7       1.0000 0.51700  0.62850  0.00459  Biso   1.000  O  -0.516349
  O8       1.0000 0.55540  0.58730  0.95591  Biso   1.000  O  -0.535903
  O9       1.0000 0.18367  0.96183  0.33792  Biso   1.000  O  -0.516249
  O10      1.0000 0.22207  0.92063  0.28924  Biso   1.000  O  -0.535709
  O11      1.0000 0.85033  0.29517  0.67126  Biso   1.000  O  -0.516261
  O12      1.0000 0.88873  0.25397  0.62258  Biso   1.000  O  -0.535715
  O13      1.0000 0.37150  0.88850  0.00459  Biso   1.000  O  -0.516475
  O14      1.0000 0.41270  0.96810  0.95591  Biso   1.000  O  -0.535997
  O15      1.0000 0.03817  0.22183  0.33792  Biso   1.000  O  -0.516402
  O16      1.0000 0.07937  0.30143  0.28924  Biso   1.000  O  -0.535522
  O17      1.0000 0.70483  0.55517  0.67126  Biso   1.000  O  -0.509580
  O18      1.0000 0.74603  0.63477  0.62258  Biso   1.000  O  -0.529527
  O19      1.0000 0.48300  0.11150  0.99541  Biso   1.000  O  -0.516037
  O20      1.0000 0.44460  0.03190  0.04409  Biso   1.000  O  -0.537511
  O21      1.0000 0.14967  0.44483  0.32874  Biso   1.000  O  -0.515782
  O22      1.0000 0.11127  0.36523  0.37742  Biso   1.000  O  -0.537691
  O23      1.0000 0.81633  0.77817  0.66208  Biso   1.000  O  -0.509338
  O24      1.0000 0.77793  0.69857  0.71076  Biso   1.000  O  -0.530926
  O25      1.0000 0.62850  0.51700  0.99541  Biso   1.000  O  -0.516173
  O26      1.0000 0.58730  0.55540  0.04409  Biso   1.000  O  -0.537590
  O27      1.0000 0.29517  0.85033  0.32874  Biso   1.000  O  -0.516069
  O28      1.0000 0.25397  0.88873  0.37742  Biso   1.000  O  -0.537471
  O29      1.0000 0.96183  0.18367  0.66208  Biso   1.000  O  -0.515945
  O30      1.0000 0.92063  0.22207  0.71076  Biso   1.000  O  -0.537289
  O31      1.0000 0.88850  0.37150  0.99541  Biso   1.000  O  -0.516826
  O32      1.0000 0.96810  0.41270  0.04409  Biso   1.000  O  -0.537610
  O33      1.0000 0.55517  0.70483  0.32874  Biso   1.000  O  -0.515996
  O34      1.0000 0.63477  0.74603  0.37742  Biso   1.000  O  -0.537474
  O35      1.0000 0.22183  0.03817  0.66208  Biso   1.000  O  -0.515925
  O36      1.0000 0.30143  0.07937  0.71076  Biso   1.000  O  -0.537165
  O37      1.0000 0.88850  0.51700  0.99541  Biso   1.000  O  -0.517177
  O38      1.0000 0.96810  0.55540  0.04409  Biso   1.000  O  -0.536018
  O39      1.0000 0.55517  0.85033  0.32874  Biso   1.000  O  -0.516153
  O40      1.0000 0.63477  0.88873  0.37742  Biso   1.000  O  -0.535933
  O41      1.0000 0.22183  0.18367  0.66208  Biso   1.000  O  -0.516443
  O42      1.0000 0.30143  0.22207  0.71076  Biso   1.000  O  -0.535449
  O43      1.0000 0.48300  0.37150  0.99541  Biso   1.000  O  -0.516355
  O44      1.0000 0.44460  0.41270  0.04409  Biso   1.000  O  -0.535839
  O45      1.0000 0.14967  0.70483  0.32874  Biso   1.000  O  -0.516386
  O46      1.0000 0.11127  0.74603  0.37742  Biso   1.000  O  -0.535887
  O47      1.0000 0.81633  0.03817  0.66208  Biso   1.000  O  -0.516107
  O48      1.0000 0.77793  0.07937  0.71076  Biso   1.000  O  -0.535609
  O49      1.0000 0.62850  0.11150  0.99541  Biso   1.000  O  -0.516438
  O50      1.0000 0.58730  0.03190  0.04409  Biso   1.000  O  -0.535805
  O51      1.0000 0.29517  0.44483  0.32874  Biso   1.000  O  -0.516288
  O52      1.0000 0.25397  0.36523  0.37742  Biso   1.000  O  -0.535803
  O53      1.0000 0.96183  0.77817  0.66208  Biso   1.000  O  -0.509668
  O54      1.0000 0.92063  0.69857  0.71076  Biso   1.000  O  -0.529328
  O55      1.0000 0.51700  0.88850  0.00459  Biso   1.000  O  -0.516011
  O56      1.0000 0.55540  0.96810  0.95591  Biso   1.000  O  -0.537603
  O57      1.0000 0.18367  0.22183  0.33792  Biso   1.000  O  -0.516093
  O58      1.0000 0.22207  0.30143  0.28924  Biso   1.000  O  -0.537225
  O59      1.0000 0.85033  0.55517  0.67126  Biso   1.000  O  -0.509049
  O60      1.0000 0.88873  0.63477  0.62258  Biso   1.000  O  -0.531299
  O61      1.0000 0.37150  0.48300  0.00459  Biso   1.000  O  -0.516101
  O62      1.0000 0.41270  0.44460  0.95591  Biso   1.000  O  -0.537535
  O63      1.0000 0.03817  0.81633  0.33792  Biso   1.000  O  -0.515931
  O64      1.0000 0.07937  0.77793  0.28924  Biso   1.000  O  -0.537295
  O65      1.0000 0.70483  0.14967  0.67126  Biso   1.000  O  -0.516097
  O66      1.0000 0.74603  0.11127  0.62258  Biso   1.000  O  -0.537401
  O67      1.0000 0.11150  0.62850  0.00459  Biso   1.000  O  -0.516865
  O68      1.0000 0.03190  0.58730  0.95591  Biso   1.000  O  -0.537774
  O69      1.0000 0.77817  0.96183  0.33792  Biso   1.000  O  -0.516093
  O70      1.0000 0.69857  0.92063  0.28924  Biso   1.000  O  -0.537205
  O71      1.0000 0.44483  0.29517  0.67126  Biso   1.000  O  -0.515839
  O72      1.0000 0.36523  0.25397  0.62258  Biso   1.000  O  -0.537381
