data_image0
_cell_length_a       21.7289
_cell_length_b       21.7289
_cell_length_c       30.0021
_cell_angle_alpha    98.0698
_cell_angle_beta     98.0698
_cell_angle_gamma    117.44

_symmetry_space_group_name_H-M    "P 1"
_symmetry_int_tables_number       1

loop_
  _symmetry_equiv_pos_as_xyz
  'x, y, z'

loop_
  _atom_site_label
  _atom_site_occupancy
  _atom_site_fract_x
  _atom_site_fract_y
  _atom_site_fract_z
  _atom_site_thermal_displace_type
  _atom_site_B_iso_or_equiv
  _atom_site_type_symbol
  _atom_site_charge
  C1       1.0000 0.70990  0.62850  0.70750  Biso   1.000  C  0.599384
  C2       1.0000 0.68120  0.55180  0.68750  Biso   1.000  C  -0.002223
  C3       1.0000 0.72380  0.52020  0.69450  Biso   1.000  C  -0.199526
  C4       1.0000 0.69760  0.44900  0.67230  Biso   1.000  C  0.142644
  C5       1.0000 0.63050  0.40930  0.64400  Biso   1.000  C  -0.049069
  C6       1.0000 0.58530  0.44010  0.63830  Biso   1.000  C  0.147916
  C7       1.0000 0.61290  0.51210  0.66100  Biso   1.000  C  -0.204652
  C8       1.0000 0.74470  0.41510  0.68010  Biso   1.000  C  -0.503528
  C9       1.0000 0.51220  0.39660  0.61140  Biso   1.000  C  -0.511570
  C10      1.0000 0.53290  0.12350  0.54280  Biso   1.000  C  0.596730
  C11      1.0000 0.55540  0.19780  0.56860  Biso   1.000  C  0.004768
  C12      1.0000 0.58840  0.25400  0.54990  Biso   1.000  C  -0.194454
  C13      1.0000 0.61580  0.32440  0.57520  Biso   1.000  C  0.153410
  C14      1.0000 0.60400  0.33540  0.61790  Biso   1.000  C  -0.047927
  C15      1.0000 0.56840  0.27720  0.63860  Biso   1.000  C  0.143258
  C16      1.0000 0.54640  0.21080  0.61240  Biso   1.000  C  -0.203617
  C17      1.0000 0.64680  0.38520  0.55380  Biso   1.000  C  -0.507752
  C18      1.0000 0.55640  0.29000  0.68590  Biso   1.000  C  -0.503457
  C19      1.0000 0.81520  0.89380  0.76860  Biso   1.000  C  0.598253
  C20      1.0000 0.84600  0.97100  0.79040  Biso   1.000  C  -0.013642
  C21      1.0000 0.79950  0.99590  0.80190  Biso   1.000  C  -0.194553
  C22      1.0000 0.82730  0.06630  0.82570  Biso   1.000  C  0.137252
  C23      1.0000 0.90000  0.11020  0.83890  Biso   1.000  C  -0.046959
  C24      1.0000 0.94820  0.08700  0.82640  Biso   1.000  C  0.146714
  C25      1.0000 0.91850  0.01730  0.80220  Biso   1.000  C  -0.192779
  C26      1.0000 0.77560  0.09180  0.83800  Biso   1.000  C  -0.499619
  C27      1.0000 0.02680  0.13680  0.83910  Biso   1.000  C  -0.505124
  C28      1.0000 0.98540  0.38720  0.95340  Biso   1.000  C  0.590921
  C29      1.0000 0.96800  0.31560  0.92430  Biso   1.000  C  0.002818
  C30      1.0000 0.96090  0.30710  0.87680  Biso   1.000  C  -0.206582
  C31      1.0000 0.94050  0.24110  0.84830  Biso   1.000  C  0.138018
  C32      1.0000 0.92900  0.18440  0.86940  Biso   1.000  C  -0.040972
  C33      1.0000 0.93820  0.19340  0.91660  Biso   1.000  C  0.143027
  C34      1.0000 0.95600  0.25880  0.94370  Biso   1.000  C  -0.200313
  C35      1.0000 0.93120  0.23380  0.79600  Biso   1.000  C  -0.501055
  C36      1.0000 0.92410  0.13090  0.93930  Biso   1.000  C  -0.502871
  C37      1.0000 0.74490  0.76250  0.31880  Biso   1.000  C  0.604060
  C38      1.0000 0.74000  0.76460  0.36800  Biso   1.000  C  -0.003555
  C39      1.0000 0.76810  0.82930  0.39980  Biso   1.000  C  -0.200547
  C40      1.0000 0.76760  0.83200  0.44530  Biso   1.000  C  0.149809
  C41      1.0000 0.73830  0.76850  0.46090  Biso   1.000  C  -0.042725
  C42      1.0000 0.70650  0.70450  0.42950  Biso   1.000  C  0.133695
  C43      1.0000 0.70600  0.70180  0.38270  Biso   1.000  C  -0.199618
  C44      1.0000 0.80070  0.90350  0.47940  Biso   1.000  C  -0.508237
  C45      1.0000 0.66850  0.63430  0.44440  Biso   1.000  C  -0.501960
  C46      1.0000 0.75720  0.77280  0.65510  Biso   1.000  C  0.592917
  C47      1.0000 0.75290  0.77590  0.60490  Biso   1.000  C  -0.002049
  C48      1.0000 0.80560  0.77340  0.58530  Biso   1.000  C  -0.205935
  C49      1.0000 0.80020  0.77100  0.53720  Biso   1.000  C  0.139907
  C50      1.0000 0.74200  0.77140  0.51090  Biso   1.000  C  -0.045870
  C51      1.0000 0.69010  0.77430  0.53220  Biso   1.000  C  0.135470
  C52      1.0000 0.69660  0.77800  0.57940  Biso   1.000  C  -0.193841
  C53      1.0000 0.85610  0.76570  0.51510  Biso   1.000  C  -0.503937
  C54      1.0000 0.62750  0.77850  0.50460  Biso   1.000  C  -0.504341
  C55      1.0000 0.37150  0.29010  0.79250  Biso   1.000  C  0.599385
  C56      1.0000 0.44820  0.31880  0.81250  Biso   1.000  C  -0.002197
  C57      1.0000 0.47980  0.27620  0.80550  Biso   1.000  C  -0.199510
  C58      1.0000 0.55100  0.30240  0.82770  Biso   1.000  C  0.142639
  C59      1.0000 0.59070  0.36950  0.85600  Biso   1.000  C  -0.049132
  C60      1.0000 0.55990  0.41470  0.86170  Biso   1.000  C  0.147910
  C61      1.0000 0.48790  0.38710  0.83900  Biso   1.000  C  -0.204625
  C62      1.0000 0.58490  0.25530  0.81990  Biso   1.000  C  -0.503529
  C63      1.0000 0.60340  0.48780  0.88860  Biso   1.000  C  -0.511576
  C64      1.0000 0.87650  0.46710  0.95720  Biso   1.000  C  0.593317
  C65      1.0000 0.80220  0.44460  0.93140  Biso   1.000  C  0.008433
  C66      1.0000 0.74600  0.41160  0.95010  Biso   1.000  C  -0.195166
  C67      1.0000 0.67560  0.38420  0.92480  Biso   1.000  C  0.153713
  C68      1.0000 0.66460  0.39600  0.88210  Biso   1.000  C  -0.047952
  C69      1.0000 0.72280  0.43160  0.86140  Biso   1.000  C  0.143562
  C70      1.0000 0.78920  0.45360  0.88760  Biso   1.000  C  -0.204329
  C71      1.0000 0.61480  0.35320  0.94620  Biso   1.000  C  -0.507642
  C72      1.0000 0.71000  0.44360  0.81410  Biso   1.000  C  -0.503347
  C73      1.0000 0.10620  0.18480  0.73140  Biso   1.000  C  0.598249
  C74      1.0000 0.02900  0.15400  0.70960  Biso   1.000  C  -0.013703
  C75      1.0000 0.00410  0.20050  0.69810  Biso   1.000  C  -0.194599
  C76      1.0000 0.93370  0.17270  0.67430  Biso   1.000  C  0.137259
  C77      1.0000 0.88980  0.10000  0.66110  Biso   1.000  C  -0.046853
  C78      1.0000 0.91300  0.05180  0.67360  Biso   1.000  C  0.146725
  C79      1.0000 0.98270  0.08150  0.69780  Biso   1.000  C  -0.192818
  C80      1.0000 0.90820  0.22440  0.66200  Biso   1.000  C  -0.499620
  C81      1.0000 0.86320  0.97320  0.66090  Biso   1.000  C  -0.505118
  C82      1.0000 0.61280  0.01460  0.54660  Biso   1.000  C  0.594029
  C83      1.0000 0.68440  0.03200  0.57570  Biso   1.000  C  -0.000978
  C84      1.0000 0.69290  0.03910  0.62320  Biso   1.000  C  -0.205921
  C85      1.0000 0.75890  0.05950  0.65170  Biso   1.000  C  0.137550
  C86      1.0000 0.81560  0.07100  0.63060  Biso   1.000  C  -0.040882
  C87      1.0000 0.80660  0.06180  0.58340  Biso   1.000  C  0.142584
  C88      1.0000 0.74120  0.04400  0.55630  Biso   1.000  C  -0.199531
  C89      1.0000 0.76620  0.06880  0.70400  Biso   1.000  C  -0.501187
  C90      1.0000 0.86910  0.07590  0.56070  Biso   1.000  C  -0.503025
  C91      1.0000 0.23750  0.25510  0.18120  Biso   1.000  C  0.604056
  C92      1.0000 0.23540  0.26000  0.13200  Biso   1.000  C  -0.003555
  C93      1.0000 0.17070  0.23190  0.10020  Biso   1.000  C  -0.200516
  C94      1.0000 0.16800  0.23240  0.05470  Biso   1.000  C  0.149826
  C95      1.0000 0.23150  0.26170  0.03910  Biso   1.000  C  -0.042731
  C96      1.0000 0.29550  0.29350  0.07050  Biso   1.000  C  0.133687
  C97      1.0000 0.29820  0.29400  0.11730  Biso   1.000  C  -0.199628
  C98      1.0000 0.09650  0.19930  0.02060  Biso   1.000  C  -0.508240
  C99      1.0000 0.36570  0.33150  0.05560  Biso   1.000  C  -0.501961
  C100     1.0000 0.22720  0.24280  0.84490  Biso   1.000  C  0.592906
  C101     1.0000 0.22410  0.24710  0.89510  Biso   1.000  C  -0.002059
  C102     1.0000 0.22660  0.19440  0.91470  Biso   1.000  C  -0.205951
  C103     1.0000 0.22900  0.19980  0.96280  Biso   1.000  C  0.139901
  C104     1.0000 0.22860  0.25800  0.98910  Biso   1.000  C  -0.045877
  C105     1.0000 0.22570  0.30990  0.96780  Biso   1.000  C  0.135462
  C106     1.0000 0.22200  0.30340  0.92060  Biso   1.000  C  -0.193858
  C107     1.0000 0.23430  0.14390  0.98490  Biso   1.000  C  -0.503936
  C108     1.0000 0.22150  0.37250  0.99540  Biso   1.000  C  -0.504329
  C109     1.0000 0.29010  0.37150  0.29250  Biso   1.000  C  0.599384
  C110     1.0000 0.31880  0.44820  0.31250  Biso   1.000  C  -0.002223
  C111     1.0000 0.27620  0.47980  0.30550  Biso   1.000  C  -0.199526
  C112     1.0000 0.30240  0.55100  0.32770  Biso   1.000  C  0.142644
  C113     1.0000 0.36950  0.59070  0.35600  Biso   1.000  C  -0.049069
  C114     1.0000 0.41470  0.55990  0.36170  Biso   1.000  C  0.147917
  C115     1.0000 0.38710  0.48790  0.33900  Biso   1.000  C  -0.204651
  C116     1.0000 0.25530  0.58490  0.31990  Biso   1.000  C  -0.503528
  C117     1.0000 0.48780  0.60340  0.38860  Biso   1.000  C  -0.511570
  C118     1.0000 0.46710  0.87650  0.45720  Biso   1.000  C  0.596730
  C119     1.0000 0.44460  0.80220  0.43140  Biso   1.000  C  0.004769
  C120     1.0000 0.41160  0.74600  0.45010  Biso   1.000  C  -0.194454
  C121     1.0000 0.38420  0.67560  0.42480  Biso   1.000  C  0.153410
  C122     1.0000 0.39600  0.66460  0.38210  Biso   1.000  C  -0.047927
  C123     1.0000 0.43160  0.72280  0.36140  Biso   1.000  C  0.143258
  C124     1.0000 0.45360  0.78920  0.38760  Biso   1.000  C  -0.203616
  C125     1.0000 0.35320  0.61480  0.44620  Biso   1.000  C  -0.507752
  C126     1.0000 0.44360  0.71000  0.31410  Biso   1.000  C  -0.503458
  C127     1.0000 0.18480  0.10620  0.23140  Biso   1.000  C  0.598253
  C128     1.0000 0.15400  0.02900  0.20960  Biso   1.000  C  -0.013642
  C129     1.0000 0.20050  0.00410  0.19810  Biso   1.000  C  -0.194553
  C130     1.0000 0.17270  0.93370  0.17430  Biso   1.000  C  0.137252
  C131     1.0000 0.10000  0.88980  0.16110  Biso   1.000  C  -0.046959
  C132     1.0000 0.05180  0.91300  0.17360  Biso   1.000  C  0.146714
  C133     1.0000 0.08150  0.98270  0.19780  Biso   1.000  C  -0.192778
  C134     1.0000 0.22440  0.90820  0.16200  Biso   1.000  C  -0.499619
  C135     1.0000 0.97320  0.86320  0.16090  Biso   1.000  C  -0.505124
  C136     1.0000 0.01460  0.61280  0.04660  Biso   1.000  C  0.590922
  C137     1.0000 0.03200  0.68440  0.07570  Biso   1.000  C  0.002819
  C138     1.0000 0.03910  0.69290  0.12320  Biso   1.000  C  -0.206582
  C139     1.0000 0.05950  0.75890  0.15170  Biso   1.000  C  0.138017
  C140     1.0000 0.07100  0.81560  0.13060  Biso   1.000  C  -0.040972
  C141     1.0000 0.06180  0.80660  0.08340  Biso   1.000  C  0.143027
  C142     1.0000 0.04400  0.74120  0.05630  Biso   1.000  C  -0.200312
  C143     1.0000 0.06880  0.76620  0.20400  Biso   1.000  C  -0.501055
  C144     1.0000 0.07590  0.86910  0.06070  Biso   1.000  C  -0.502871
  C145     1.0000 0.25510  0.23750  0.68120  Biso   1.000  C  0.604061
  C146     1.0000 0.26000  0.23540  0.63200  Biso   1.000  C  -0.003554
  C147     1.0000 0.23190  0.17070  0.60020  Biso   1.000  C  -0.200546
  C148     1.0000 0.23240  0.16800  0.55470  Biso   1.000  C  0.149809
  C149     1.0000 0.26170  0.23150  0.53910  Biso   1.000  C  -0.042726
  C150     1.0000 0.29350  0.29550  0.57050  Biso   1.000  C  0.133695
  C151     1.0000 0.29400  0.29820  0.61730  Biso   1.000  C  -0.199617
  C152     1.0000 0.19930  0.09650  0.52060  Biso   1.000  C  -0.508237
  C153     1.0000 0.33150  0.36570  0.55560  Biso   1.000  C  -0.501960
  C154     1.0000 0.24280  0.22720  0.34490  Biso   1.000  C  0.592917
  C155     1.0000 0.24710  0.22410  0.39510  Biso   1.000  C  -0.002050
  C156     1.0000 0.19440  0.22660  0.41470  Biso   1.000  C  -0.205936
  C157     1.0000 0.19980  0.22900  0.46280  Biso   1.000  C  0.139907
  C158     1.0000 0.25800  0.22860  0.48910  Biso   1.000  C  -0.045869
  C159     1.0000 0.30990  0.22570  0.46780  Biso   1.000  C  0.135471
  C160     1.0000 0.30340  0.22200  0.42060  Biso   1.000  C  -0.193842
  C161     1.0000 0.14390  0.23430  0.48490  Biso   1.000  C  -0.503936
  C162     1.0000 0.37250  0.22150  0.49540  Biso   1.000  C  -0.504341
  C163     1.0000 0.62850  0.70990  0.20750  Biso   1.000  C  0.599385
  C164     1.0000 0.55180  0.68120  0.18750  Biso   1.000  C  -0.002197
  C165     1.0000 0.52020  0.72380  0.19450  Biso   1.000  C  -0.199509
  C166     1.0000 0.44900  0.69760  0.17230  Biso   1.000  C  0.142639
  C167     1.0000 0.40930  0.63050  0.14400  Biso   1.000  C  -0.049132
  C168     1.0000 0.44010  0.58530  0.13830  Biso   1.000  C  0.147910
  C169     1.0000 0.51210  0.61290  0.16100  Biso   1.000  C  -0.204624
  C170     1.0000 0.41510  0.74470  0.18010  Biso   1.000  C  -0.503529
  C171     1.0000 0.39660  0.51220  0.11140  Biso   1.000  C  -0.511576
  C172     1.0000 0.12350  0.53290  0.04280  Biso   1.000  C  0.593317
  C173     1.0000 0.19780  0.55540  0.06860  Biso   1.000  C  0.008433
  C174     1.0000 0.25400  0.58840  0.04990  Biso   1.000  C  -0.195166
  C175     1.0000 0.32440  0.61580  0.07520  Biso   1.000  C  0.153713
  C176     1.0000 0.33540  0.60400  0.11790  Biso   1.000  C  -0.047953
  C177     1.0000 0.27720  0.56840  0.13860  Biso   1.000  C  0.143562
  C178     1.0000 0.21080  0.54640  0.11240  Biso   1.000  C  -0.204328
  C179     1.0000 0.38520  0.64680  0.05380  Biso   1.000  C  -0.507643
  C180     1.0000 0.29000  0.55640  0.18590  Biso   1.000  C  -0.503347
  C181     1.0000 0.89380  0.81520  0.26860  Biso   1.000  C  0.598249
  C182     1.0000 0.97100  0.84600  0.29040  Biso   1.000  C  -0.013703
  C183     1.0000 0.99590  0.79950  0.30190  Biso   1.000  C  -0.194599
  C184     1.0000 0.06630  0.82730  0.32570  Biso   1.000  C  0.137259
  C185     1.0000 0.11020  0.90000  0.33890  Biso   1.000  C  -0.046853
  C186     1.0000 0.08700  0.94820  0.32640  Biso   1.000  C  0.146725
  C187     1.0000 0.01730  0.91850  0.30220  Biso   1.000  C  -0.192818
  C188     1.0000 0.09180  0.77560  0.33800  Biso   1.000  C  -0.499620
  C189     1.0000 0.13680  0.02680  0.33910  Biso   1.000  C  -0.505118
  C190     1.0000 0.38720  0.98540  0.45340  Biso   1.000  C  0.594029
  C191     1.0000 0.31560  0.96800  0.42430  Biso   1.000  C  -0.000977
  C192     1.0000 0.30710  0.96090  0.37680  Biso   1.000  C  -0.205921
  C193     1.0000 0.24110  0.94050  0.34830  Biso   1.000  C  0.137550
  C194     1.0000 0.18440  0.92900  0.36940  Biso   1.000  C  -0.040883
  C195     1.0000 0.19340  0.93820  0.41660  Biso   1.000  C  0.142584
  C196     1.0000 0.25880  0.95600  0.44370  Biso   1.000  C  -0.199530
  C197     1.0000 0.23380  0.93120  0.29600  Biso   1.000  C  -0.501187
  C198     1.0000 0.13090  0.92410  0.43930  Biso   1.000  C  -0.503025
  C199     1.0000 0.76250  0.74490  0.81880  Biso   1.000  C  0.604057
  C200     1.0000 0.76460  0.74000  0.86800  Biso   1.000  C  -0.003554
  C201     1.0000 0.82930  0.76810  0.89980  Biso   1.000  C  -0.200516
  C202     1.0000 0.83200  0.76760  0.94530  Biso   1.000  C  0.149825
  C203     1.0000 0.76850  0.73830  0.96090  Biso   1.000  C  -0.042732
  C204     1.0000 0.70450  0.70650  0.92950  Biso   1.000  C  0.133687
  C205     1.0000 0.70180  0.70600  0.88270  Biso   1.000  C  -0.199627
  C206     1.0000 0.90350  0.80070  0.97940  Biso   1.000  C  -0.508240
  C207     1.0000 0.63430  0.66850  0.94440  Biso   1.000  C  -0.501961
  C208     1.0000 0.77280  0.75720  0.15510  Biso   1.000  C  0.592906
  C209     1.0000 0.77590  0.75290  0.10490  Biso   1.000  C  -0.002060
  C210     1.0000 0.77340  0.80560  0.08530  Biso   1.000  C  -0.205952
  C211     1.0000 0.77100  0.80020  0.03720  Biso   1.000  C  0.139901
  C212     1.0000 0.77140  0.74200  0.01090  Biso   1.000  C  -0.045877
  C213     1.0000 0.77430  0.69010  0.03220  Biso   1.000  C  0.135462
  C214     1.0000 0.77800  0.69660  0.07940  Biso   1.000  C  -0.193858
  C215     1.0000 0.76570  0.85610  0.01510  Biso   1.000  C  -0.503936
  C216     1.0000 0.77850  0.62750  0.00460  Biso   1.000  C  -0.504328
  Cu1      1.0000 0.69727  0.75219  0.73259  Biso   1.000  Cu  0.858026
  Cu2      1.0000 0.82641  0.77071  0.74246  Biso   1.000  Cu  0.862282
  Cu3      1.0000 0.46772  0.97444  0.53230  Biso   1.000  Cu  0.859885
  Cu4      1.0000 0.24781  0.30273  0.76741  Biso   1.000  Cu  0.858054
  Cu5      1.0000 0.22929  0.17359  0.75754  Biso   1.000  Cu  0.862255
  Cu6      1.0000 0.02556  0.53228  0.96770  Biso   1.000  Cu  0.834264
  Cu7      1.0000 0.30273  0.24781  0.26741  Biso   1.000  Cu  0.858029
  Cu8      1.0000 0.17359  0.22929  0.25754  Biso   1.000  Cu  0.862285
  Cu9      1.0000 0.53228  0.02556  0.46770  Biso   1.000  Cu  0.859883
  Cu10     1.0000 0.75219  0.69727  0.23259  Biso   1.000  Cu  0.858056
  Cu11     1.0000 0.77071  0.82641  0.24246  Biso   1.000  Cu  0.862256
  Cu12     1.0000 0.97444  0.46772  0.03230  Biso   1.000  Cu  0.834263
  H1       1.0000 0.77030  0.54690  0.71430  Biso   1.000  H  0.129250
  H2       1.0000 0.58350  0.53350  0.65780  Biso   1.000  H  0.130827
  H3       1.0000 0.78690  0.44730  0.70510  Biso   1.000  H  0.156555
  H4       1.0000 0.71800  0.36980  0.68870  Biso   1.000  H  0.154948
  H5       1.0000 0.75970  0.40650  0.65160  Biso   1.000  H  0.161816
  H6       1.0000 0.48090  0.40870  0.62660  Biso   1.000  H  0.163770
  H7       1.0000 0.50900  0.40540  0.58020  Biso   1.000  H  0.166721
  H8       1.0000 0.49750  0.34610  0.60920  Biso   1.000  H  0.156185
  H9       1.0000 0.59350  0.24590  0.51900  Biso   1.000  H  0.123395
  H10      1.0000 0.52340  0.17120  0.62560  Biso   1.000  H  0.121297
  H11      1.0000 0.63580  0.42200  0.56680  Biso   1.000  H  0.155031
  H12      1.0000 0.62670  0.36930  0.52030  Biso   1.000  H  0.159542
  H13      1.0000 0.69860  0.40500  0.55990  Biso   1.000  H  0.163542
  H14      1.0000 0.51840  0.24580  0.69040  Biso   1.000  H  0.163589
  H15      1.0000 0.54240  0.32700  0.68930  Biso   1.000  H  0.162491
  H16      1.0000 0.60050  0.30570  0.70900  Biso   1.000  H  0.159706
  H17      1.0000 0.74940  0.96480  0.79350  Biso   1.000  H  0.126761
  H18      1.0000 0.94920  0.00040  0.79330  Biso   1.000  H  0.126862
  H19      1.0000 0.72790  0.05970  0.81810  Biso   1.000  H  0.157676
  H20      1.0000 0.77370  0.09210  0.87050  Biso   1.000  H  0.161455
  H21      1.0000 0.79200  0.14020  0.83340  Biso   1.000  H  0.155367
  H22      1.0000 0.05060  0.11480  0.82320  Biso   1.000  H  0.166959
  H23      1.0000 0.03670  0.18130  0.82980  Biso   1.000  H  0.162134
  H24      1.0000 0.04450  0.14710  0.87260  Biso   1.000  H  0.162408
  H25      1.0000 0.97010  0.34670  0.86350  Biso   1.000  H  0.128884
  H26      1.0000 0.95980  0.26440  0.97610  Biso   1.000  H  0.127683
  H27      1.0000 0.94760  0.20140  0.78330  Biso   1.000  H  0.155024
  H28      1.0000 0.88060  0.21460  0.78150  Biso   1.000  H  0.158594
  H29      1.0000 0.95920  0.28080  0.78980  Biso   1.000  H  0.162119
  H30      1.0000 0.94270  0.10210  0.92430  Biso   1.000  H  0.158158
  H31      1.0000 0.94810  0.14930  0.97230  Biso   1.000  H  0.156265
  H32      1.0000 0.87270  0.10150  0.93600  Biso   1.000  H  0.162345
  H33      1.0000 0.78790  0.87250  0.38960  Biso   1.000  H  0.128379
  H34      1.0000 0.68250  0.65710  0.36090  Biso   1.000  H  0.129934
  H35      1.0000 0.82610  0.94170  0.46410  Biso   1.000  H  0.158022
  H36      1.0000 0.83420  0.90540  0.50570  Biso   1.000  H  0.158361
  H37      1.0000 0.76310  0.90970  0.49040  Biso   1.000  H  0.160397
  H38      1.0000 0.65860  0.64380  0.47470  Biso   1.000  H  0.154141
  H39      1.0000 0.69900  0.61240  0.44630  Biso   1.000  H  0.163227
  H40      1.0000 0.62360  0.60200  0.42160  Biso   1.000  H  0.154879
  H41      1.0000 0.84500  0.77340  0.60360  Biso   1.000  H  0.134584
  H42      1.0000 0.66220  0.78200  0.59400  Biso   1.000  H  0.132411
  H43      1.0000 0.83330  0.73270  0.48450  Biso   1.000  H  0.156594
  H44      1.0000 0.89010  0.81290  0.51160  Biso   1.000  H  0.163647
  H45      1.0000 0.88140  0.74800  0.53460  Biso   1.000  H  0.161429
  H46      1.0000 0.58790  0.76190  0.52020  Biso   1.000  H  0.160975
  H47      1.0000 0.64290  0.82790  0.50270  Biso   1.000  H  0.166198
  H48      1.0000 0.61180  0.74820  0.47330  Biso   1.000  H  0.155265
  H49      1.0000 0.45310  0.22970  0.78570  Biso   1.000  H  0.129240
  H50      1.0000 0.46650  0.41650  0.84220  Biso   1.000  H  0.130843
  H51      1.0000 0.55270  0.21310  0.79490  Biso   1.000  H  0.156542
  H52      1.0000 0.63020  0.28200  0.81130  Biso   1.000  H  0.154952
  H53      1.0000 0.59350  0.24030  0.84840  Biso   1.000  H  0.161816
  H54      1.0000 0.59130  0.51910  0.87340  Biso   1.000  H  0.163793
  H55      1.0000 0.59460  0.49100  0.91980  Biso   1.000  H  0.166728
  H56      1.0000 0.65390  0.50250  0.89080  Biso   1.000  H  0.156180
  H57      1.0000 0.75410  0.40650  0.98100  Biso   1.000  H  0.123767
  H58      1.0000 0.82880  0.47660  0.87440  Biso   1.000  H  0.121629
  H59      1.0000 0.57800  0.36420  0.93320  Biso   1.000  H  0.155074
  H60      1.0000 0.63070  0.37330  0.97970  Biso   1.000  H  0.159628
  H61      1.0000 0.59500  0.30140  0.94010  Biso   1.000  H  0.163590
  H62      1.0000 0.75420  0.48160  0.80960  Biso   1.000  H  0.163686
  H63      1.0000 0.67300  0.45760  0.81070  Biso   1.000  H  0.162530
  H64      1.0000 0.69430  0.39950  0.79100  Biso   1.000  H  0.159752
  H65      1.0000 0.03520  0.25060  0.70650  Biso   1.000  H  0.126753
  H66      1.0000 0.99960  0.05080  0.70670  Biso   1.000  H  0.126841
  H67      1.0000 0.94030  0.27210  0.68190  Biso   1.000  H  0.157647
  H68      1.0000 0.90790  0.22630  0.62950  Biso   1.000  H  0.161451
  H69      1.0000 0.85980  0.20800  0.66660  Biso   1.000  H  0.155375
  H70      1.0000 0.88520  0.94940  0.67680  Biso   1.000  H  0.166922
  H71      1.0000 0.81870  0.96330  0.67020  Biso   1.000  H  0.162140
  H72      1.0000 0.85290  0.95550  0.62740  Biso   1.000  H  0.162419
  H73      1.0000 0.65330  0.02990  0.63650  Biso   1.000  H  0.128442
  H74      1.0000 0.73560  0.04020  0.52390  Biso   1.000  H  0.127265
  H75      1.0000 0.79860  0.05240  0.71670  Biso   1.000  H  0.154943
  H76      1.0000 0.78540  0.11940  0.71850  Biso   1.000  H  0.158481
  H77      1.0000 0.71920  0.04080  0.71020  Biso   1.000  H  0.162005
  H78      1.0000 0.89790  0.05730  0.57570  Biso   1.000  H  0.158063
  H79      1.0000 0.85070  0.05190  0.52770  Biso   1.000  H  0.156169
  H80      1.0000 0.89850  0.12730  0.56400  Biso   1.000  H  0.162270
  H81      1.0000 0.12750  0.21210  0.11040  Biso   1.000  H  0.128397
  H82      1.0000 0.34290  0.31750  0.13910  Biso   1.000  H  0.129932
  H83      1.0000 0.05830  0.17390  0.03590  Biso   1.000  H  0.158032
  H84      1.0000 0.09460  0.16580  0.99430  Biso   1.000  H  0.158329
  H85      1.0000 0.09030  0.23690  0.00960  Biso   1.000  H  0.160414
  H86      1.0000 0.35620  0.34140  0.02530  Biso   1.000  H  0.154139
  H87      1.0000 0.38760  0.30100  0.05370  Biso   1.000  H  0.163230
  H88      1.0000 0.39800  0.37640  0.07840  Biso   1.000  H  0.154876
  H89      1.0000 0.22660  0.15500  0.89640  Biso   1.000  H  0.134584
  H90      1.0000 0.21800  0.33780  0.90600  Biso   1.000  H  0.132433
  H91      1.0000 0.26730  0.16670  0.01550  Biso   1.000  H  0.156594
  H92      1.0000 0.18710  0.10990  0.98840  Biso   1.000  H  0.163640
  H93      1.0000 0.25200  0.11860  0.96540  Biso   1.000  H  0.161435
  H94      1.0000 0.23810  0.41210  0.97980  Biso   1.000  H  0.161009
  H95      1.0000 0.17210  0.35710  0.99730  Biso   1.000  H  0.166248
  H96      1.0000 0.25180  0.38820  0.02670  Biso   1.000  H  0.155251
  H97      1.0000 0.22970  0.45310  0.28570  Biso   1.000  H  0.129251
  H98      1.0000 0.41650  0.46650  0.34220  Biso   1.000  H  0.130827
  H99      1.0000 0.21310  0.55270  0.29490  Biso   1.000  H  0.156555
  H100     1.0000 0.28200  0.63020  0.31130  Biso   1.000  H  0.154949
  H101     1.0000 0.24030  0.59350  0.34840  Biso   1.000  H  0.161818
  H102     1.0000 0.51910  0.59130  0.37340  Biso   1.000  H  0.163771
  H103     1.0000 0.49100  0.59460  0.41980  Biso   1.000  H  0.166722
  H104     1.0000 0.50250  0.65390  0.39080  Biso   1.000  H  0.156186
  H105     1.0000 0.40650  0.75410  0.48100  Biso   1.000  H  0.123396
  H106     1.0000 0.47660  0.82880  0.37440  Biso   1.000  H  0.121297
  H107     1.0000 0.36420  0.57800  0.43320  Biso   1.000  H  0.155031
  H108     1.0000 0.37330  0.63070  0.47970  Biso   1.000  H  0.159544
  H109     1.0000 0.30140  0.59500  0.44010  Biso   1.000  H  0.163544
  H110     1.0000 0.48160  0.75420  0.30960  Biso   1.000  H  0.163590
  H111     1.0000 0.45760  0.67300  0.31070  Biso   1.000  H  0.162491
  H112     1.0000 0.39950  0.69430  0.29100  Biso   1.000  H  0.159706
  H113     1.0000 0.25060  0.03520  0.20650  Biso   1.000  H  0.126762
  H114     1.0000 0.05080  0.99960  0.20670  Biso   1.000  H  0.126862
  H115     1.0000 0.27210  0.94030  0.18190  Biso   1.000  H  0.157677
  H116     1.0000 0.22630  0.90790  0.12950  Biso   1.000  H  0.161456
  H117     1.0000 0.20800  0.85980  0.16660  Biso   1.000  H  0.155367
  H118     1.0000 0.94940  0.88520  0.17680  Biso   1.000  H  0.166959
  H119     1.0000 0.96330  0.81870  0.17020  Biso   1.000  H  0.162135
  H120     1.0000 0.95550  0.85290  0.12740  Biso   1.000  H  0.162409
  H121     1.0000 0.02990  0.65330  0.13650  Biso   1.000  H  0.128884
  H122     1.0000 0.04020  0.73560  0.02390  Biso   1.000  H  0.127685
  H123     1.0000 0.05240  0.79860  0.21670  Biso   1.000  H  0.155024
  H124     1.0000 0.11940  0.78540  0.21850  Biso   1.000  H  0.158594
  H125     1.0000 0.04080  0.71920  0.21020  Biso   1.000  H  0.162119
  H126     1.0000 0.05730  0.89790  0.07570  Biso   1.000  H  0.158159
  H127     1.0000 0.05190  0.85070  0.02770  Biso   1.000  H  0.156266
  H128     1.0000 0.12730  0.89850  0.06400  Biso   1.000  H  0.162345
  H129     1.0000 0.21210  0.12750  0.61040  Biso   1.000  H  0.128379
  H130     1.0000 0.31750  0.34290  0.63910  Biso   1.000  H  0.129934
  H131     1.0000 0.17390  0.05830  0.53590  Biso   1.000  H  0.158022
  H132     1.0000 0.16580  0.09460  0.49430  Biso   1.000  H  0.158360
  H133     1.0000 0.23690  0.09030  0.50960  Biso   1.000  H  0.160397
  H134     1.0000 0.34140  0.35620  0.52530  Biso   1.000  H  0.154141
  H135     1.0000 0.30100  0.38760  0.55370  Biso   1.000  H  0.163226
  H136     1.0000 0.37640  0.39800  0.57840  Biso   1.000  H  0.154880
  H137     1.0000 0.15500  0.22660  0.39640  Biso   1.000  H  0.134584
  H138     1.0000 0.33780  0.21800  0.40600  Biso   1.000  H  0.132411
  H139     1.0000 0.16670  0.26730  0.51550  Biso   1.000  H  0.156595
  H140     1.0000 0.10990  0.18710  0.48840  Biso   1.000  H  0.163648
  H141     1.0000 0.11860  0.25200  0.46540  Biso   1.000  H  0.161428
  H142     1.0000 0.41210  0.23810  0.47980  Biso   1.000  H  0.160975
  H143     1.0000 0.35710  0.17210  0.49730  Biso   1.000  H  0.166198
  H144     1.0000 0.38820  0.25180  0.52670  Biso   1.000  H  0.155266
  H145     1.0000 0.54690  0.77030  0.21430  Biso   1.000  H  0.129241
  H146     1.0000 0.53350  0.58350  0.15780  Biso   1.000  H  0.130843
  H147     1.0000 0.44730  0.78690  0.20510  Biso   1.000  H  0.156543
  H148     1.0000 0.36980  0.71800  0.18870  Biso   1.000  H  0.154953
  H149     1.0000 0.40650  0.75970  0.15160  Biso   1.000  H  0.161817
  H150     1.0000 0.40870  0.48090  0.12660  Biso   1.000  H  0.163793
  H151     1.0000 0.40540  0.50900  0.08020  Biso   1.000  H  0.166730
  H152     1.0000 0.34610  0.49750  0.10920  Biso   1.000  H  0.156180
  H153     1.0000 0.24590  0.59350  0.01900  Biso   1.000  H  0.123768
  H154     1.0000 0.17120  0.52340  0.12560  Biso   1.000  H  0.121629
  H155     1.0000 0.42200  0.63580  0.06680  Biso   1.000  H  0.155074
  H156     1.0000 0.36930  0.62670  0.02030  Biso   1.000  H  0.159629
  H157     1.0000 0.40500  0.69860  0.05990  Biso   1.000  H  0.163591
  H158     1.0000 0.24580  0.51840  0.19040  Biso   1.000  H  0.163686
  H159     1.0000 0.32700  0.54240  0.18930  Biso   1.000  H  0.162530
  H160     1.0000 0.30570  0.60050  0.20900  Biso   1.000  H  0.159751
  H161     1.0000 0.96480  0.74940  0.29350  Biso   1.000  H  0.126754
  H162     1.0000 0.00040  0.94920  0.29330  Biso   1.000  H  0.126841
  H163     1.0000 0.05970  0.72790  0.31810  Biso   1.000  H  0.157648
  H164     1.0000 0.09210  0.77370  0.37050  Biso   1.000  H  0.161453
  H165     1.0000 0.14020  0.79200  0.33340  Biso   1.000  H  0.155376
  H166     1.0000 0.11480  0.05060  0.32320  Biso   1.000  H  0.166923
  H167     1.0000 0.18130  0.03670  0.32980  Biso   1.000  H  0.162141
  H168     1.0000 0.14710  0.04450  0.37260  Biso   1.000  H  0.162420
  H169     1.0000 0.34670  0.97010  0.36350  Biso   1.000  H  0.128442
  H170     1.0000 0.26440  0.95980  0.47610  Biso   1.000  H  0.127266
  H171     1.0000 0.20140  0.94760  0.28330  Biso   1.000  H  0.154942
  H172     1.0000 0.21460  0.88060  0.28150  Biso   1.000  H  0.158481
  H173     1.0000 0.28080  0.95920  0.28980  Biso   1.000  H  0.162005
  H174     1.0000 0.10210  0.94270  0.42430  Biso   1.000  H  0.158064
  H175     1.0000 0.14930  0.94810  0.47230  Biso   1.000  H  0.156170
  H176     1.0000 0.10150  0.87270  0.43600  Biso   1.000  H  0.162270
  H177     1.0000 0.87250  0.78790  0.88960  Biso   1.000  H  0.128397
  H178     1.0000 0.65710  0.68250  0.86090  Biso   1.000  H  0.129932
  H179     1.0000 0.94170  0.82610  0.96410  Biso   1.000  H  0.158031
  H180     1.0000 0.90540  0.83420  0.00570  Biso   1.000  H  0.158328
  H181     1.0000 0.90970  0.76310  0.99040  Biso   1.000  H  0.160413
  H182     1.0000 0.64380  0.65860  0.97470  Biso   1.000  H  0.154138
  H183     1.0000 0.61240  0.69900  0.94630  Biso   1.000  H  0.163230
  H184     1.0000 0.60200  0.62360  0.92160  Biso   1.000  H  0.154876
  H185     1.0000 0.77340  0.84500  0.10360  Biso   1.000  H  0.134583
  H186     1.0000 0.78200  0.66220  0.09400  Biso   1.000  H  0.132432
  H187     1.0000 0.73270  0.83330  0.98450  Biso   1.000  H  0.156595
  H188     1.0000 0.81290  0.89010  0.01160  Biso   1.000  H  0.163640
  H189     1.0000 0.74800  0.88140  0.03460  Biso   1.000  H  0.161433
  H190     1.0000 0.76190  0.58790  0.02020  Biso   1.000  H  0.161008
  H191     1.0000 0.82790  0.64290  0.00270  Biso   1.000  H  0.166248
  H192     1.0000 0.74820  0.61180  0.97330  Biso   1.000  H  0.155253
  O1       1.0000 0.66670  0.65210  0.70430  Biso   1.000  O  -0.532855
  O2       1.0000 0.77650  0.66670  0.72570  Biso   1.000  O  -0.548138
  O3       1.0000 0.74920  0.85460  0.76150  Biso   1.000  O  -0.534439
  O4       1.0000 0.85950  0.87350  0.75890  Biso   1.000  O  -0.541348
  O5       1.0000 0.73140  0.70440  0.29410  Biso   1.000  O  -0.536020
  O6       1.0000 0.76680  0.82060  0.30670  Biso   1.000  O  -0.536394
  O7       1.0000 0.70680  0.77320  0.67210  Biso   1.000  O  -0.536453
  O8       1.0000 0.80980  0.77080  0.67670  Biso   1.000  O  -0.531001
  O9       1.0000 0.96760  0.38460  0.99240  Biso   1.000  O  -0.536848
  O10      1.0000 0.00930  0.43950  0.93600  Biso   1.000  O  -0.509242
  O11      1.0000 0.49730  0.07250  0.56130  Biso   1.000  O  -0.537730
  O12      1.0000 0.55150  0.11630  0.50550  Biso   1.000  O  -0.537662
  O13      1.0000 0.34790  0.33330  0.79570  Biso   1.000  O  -0.532848
  O14      1.0000 0.33330  0.22350  0.77430  Biso   1.000  O  -0.548169
  O15      1.0000 0.14540  0.25080  0.73850  Biso   1.000  O  -0.534427
  O16      1.0000 0.12650  0.14050  0.74110  Biso   1.000  O  -0.541355
  O17      1.0000 0.29560  0.26860  0.20590  Biso   1.000  O  -0.536030
  O18      1.0000 0.17940  0.23320  0.19330  Biso   1.000  O  -0.536370
  O19      1.0000 0.22680  0.29320  0.82790  Biso   1.000  O  -0.536432
  O20      1.0000 0.22920  0.19020  0.82330  Biso   1.000  O  -0.531008
  O21      1.0000 0.61540  0.03240  0.50760  Biso   1.000  O  -0.542690
  O22      1.0000 0.56050  0.99070  0.56400  Biso   1.000  O  -0.515390
  O23      1.0000 0.92750  0.50270  0.93870  Biso   1.000  O  -0.532735
  O24      1.0000 0.88370  0.44850  0.99450  Biso   1.000  O  -0.531916
  O25      1.0000 0.33330  0.34790  0.29570  Biso   1.000  O  -0.532854
  O26      1.0000 0.22350  0.33330  0.27430  Biso   1.000  O  -0.548137
  O27      1.0000 0.25080  0.14540  0.23850  Biso   1.000  O  -0.534439
  O28      1.0000 0.14050  0.12650  0.24110  Biso   1.000  O  -0.541347
  O29      1.0000 0.26860  0.29560  0.70590  Biso   1.000  O  -0.536019
  O30      1.0000 0.23320  0.17940  0.69330  Biso   1.000  O  -0.536395
  O31      1.0000 0.29320  0.22680  0.32790  Biso   1.000  O  -0.536452
  O32      1.0000 0.19020  0.22920  0.32330  Biso   1.000  O  -0.531001
  O33      1.0000 0.03240  0.61540  0.00760  Biso   1.000  O  -0.536848
  O34      1.0000 0.99070  0.56050  0.06400  Biso   1.000  O  -0.509242
  O35      1.0000 0.50270  0.92750  0.43870  Biso   1.000  O  -0.537731
  O36      1.0000 0.44850  0.88370  0.49450  Biso   1.000  O  -0.537662
  O37      1.0000 0.65210  0.66670  0.20430  Biso   1.000  O  -0.532847
  O38      1.0000 0.66670  0.77650  0.22570  Biso   1.000  O  -0.548168
  O39      1.0000 0.85460  0.74920  0.26150  Biso   1.000  O  -0.534426
  O40      1.0000 0.87350  0.85950  0.25890  Biso   1.000  O  -0.541355
  O41      1.0000 0.70440  0.73140  0.79410  Biso   1.000  O  -0.536030
  O42      1.0000 0.82060  0.76680  0.80670  Biso   1.000  O  -0.536370
  O43      1.0000 0.77320  0.70680  0.17210  Biso   1.000  O  -0.536432
  O44      1.0000 0.77080  0.80980  0.17670  Biso   1.000  O  -0.531008
  O45      1.0000 0.38460  0.96760  0.49240  Biso   1.000  O  -0.542690
  O46      1.0000 0.43950  0.00930  0.43600  Biso   1.000  O  -0.515391
  O47      1.0000 0.07250  0.49730  0.06130  Biso   1.000  O  -0.532736
  O48      1.0000 0.11630  0.55150  0.00550  Biso   1.000  O  -0.531916
