data_image0
_cell_length_a       22.7345
_cell_length_b       22.7345
_cell_length_c       25.1354
_cell_angle_alpha    63.1124
_cell_angle_beta     63.1124
_cell_angle_gamma    60

_symmetry_space_group_name_H-M    "P 1"
_symmetry_int_tables_number       1

loop_
  _symmetry_equiv_pos_as_xyz
  'x, y, z'

loop_
  _atom_site_label
  _atom_site_occupancy
  _atom_site_fract_x
  _atom_site_fract_y
  _atom_site_fract_z
  _atom_site_thermal_displace_type
  _atom_site_B_iso_or_equiv
  _atom_site_type_symbol
  _atom_site_charge
  C1       1.0000 0.18454  0.94074  0.86698  Biso   1.000  C  0.602697
  C2       1.0000 0.22545  0.88905  0.91255  Biso   1.000  C  -0.018514
  C3       1.0000 0.29920  0.86580  0.89200  Biso   1.000  C  -0.204183
  C4       1.0000 0.33665  0.82295  0.93595  Biso   1.000  C  0.143810
  C5       1.0000 0.30220  0.80280  0.99820  Biso   1.000  C  -0.050423
  C6       1.0000 0.22768  0.82388  0.01896  Biso   1.000  C  0.154278
  C7       1.0000 0.19058  0.86748  0.97486  Biso   1.000  C  -0.199754
  C8       1.0000 0.41776  0.79796  0.91372  Biso   1.000  C  -0.523400
  C9       1.0000 0.18760  0.80120  0.08700  Biso   1.000  C  -0.522880
  C10      1.0000 0.45570  0.65770  0.18120  Biso   1.000  C  0.575597
  C11      1.0000 0.41449  0.69569  0.13383  Biso   1.000  C  -0.016976
  C12      1.0000 0.38841  0.76831  0.11127  Biso   1.000  C  -0.197455
  C13      1.0000 0.35136  0.80286  0.06882  Biso   1.000  C  0.156057
  C14      1.0000 0.34177  0.76477  0.04599  Biso   1.000  C  -0.040112
  C15      1.0000 0.36969  0.69029  0.06633  Biso   1.000  C  0.138486
  C16      1.0000 0.40633  0.65453  0.11121  Biso   1.000  C  -0.206999
  C17      1.0000 0.32121  0.88381  0.04707  Biso   1.000  C  -0.526983
  C18      1.0000 0.35657  0.64547  0.04479  Biso   1.000  C  -0.527669
  C19      1.0000 0.94074  0.00774  0.86698  Biso   1.000  C  0.600878
  C20      1.0000 0.88905  0.97295  0.91255  Biso   1.000  C  -0.018267
  C21      1.0000 0.86580  0.94300  0.89200  Biso   1.000  C  -0.208751
  C22      1.0000 0.82295  0.90445  0.93595  Biso   1.000  C  0.147218
  C23      1.0000 0.80280  0.89680  0.99820  Biso   1.000  C  -0.050831
  C24      1.0000 0.82388  0.92948  0.01896  Biso   1.000  C  0.152834
  C25      1.0000 0.86748  0.96708  0.97486  Biso   1.000  C  -0.195634
  C26      1.0000 0.79796  0.87056  0.91372  Biso   1.000  C  -0.525711
  C27      1.0000 0.80120  0.92420  0.08700  Biso   1.000  C  -0.518434
  C28      1.0000 0.65770  0.70540  0.18120  Biso   1.000  C  0.576002
  C29      1.0000 0.69569  0.75599  0.13383  Biso   1.000  C  -0.018221
  C30      1.0000 0.76831  0.73201  0.11127  Biso   1.000  C  -0.196776
  C31      1.0000 0.80286  0.77696  0.06882  Biso   1.000  C  0.157370
  C32      1.0000 0.76477  0.84747  0.04599  Biso   1.000  C  -0.042320
  C33      1.0000 0.69029  0.87369  0.06633  Biso   1.000  C  0.139154
  C34      1.0000 0.65453  0.82793  0.11121  Biso   1.000  C  -0.208105
  C35      1.0000 0.88381  0.74791  0.04707  Biso   1.000  C  -0.526511
  C36      1.0000 0.64547  0.95317  0.04479  Biso   1.000  C  -0.527536
  C37      1.0000 0.00774  0.18454  0.86698  Biso   1.000  C  0.602004
  C38      1.0000 0.97295  0.22545  0.91255  Biso   1.000  C  -0.017880
  C39      1.0000 0.94300  0.29920  0.89200  Biso   1.000  C  -0.208141
  C40      1.0000 0.90445  0.33665  0.93595  Biso   1.000  C  0.146819
  C41      1.0000 0.89680  0.30220  0.99820  Biso   1.000  C  -0.050846
  C42      1.0000 0.92948  0.22768  0.01896  Biso   1.000  C  0.153606
  C43      1.0000 0.96708  0.19058  0.97486  Biso   1.000  C  -0.197480
  C44      1.0000 0.87056  0.41776  0.91372  Biso   1.000  C  -0.523714
  C45      1.0000 0.92420  0.18760  0.08700  Biso   1.000  C  -0.522250
  C46      1.0000 0.70540  0.45570  0.18120  Biso   1.000  C  0.577130
  C47      1.0000 0.75599  0.41449  0.13383  Biso   1.000  C  -0.019661
  C48      1.0000 0.73201  0.38841  0.11127  Biso   1.000  C  -0.197510
  C49      1.0000 0.77696  0.35136  0.06882  Biso   1.000  C  0.155409
  C50      1.0000 0.84747  0.34177  0.04599  Biso   1.000  C  -0.037276
  C51      1.0000 0.87369  0.36969  0.06633  Biso   1.000  C  0.136240
  C52      1.0000 0.82793  0.40633  0.11121  Biso   1.000  C  -0.206153
  C53      1.0000 0.74791  0.32121  0.04707  Biso   1.000  C  -0.524551
  C54      1.0000 0.95317  0.35657  0.04479  Biso   1.000  C  -0.522965
  C55      1.0000 0.68454  0.50774  0.36698  Biso   1.000  C  0.602004
  C56      1.0000 0.72545  0.47295  0.41255  Biso   1.000  C  -0.017880
  C57      1.0000 0.79920  0.44300  0.39200  Biso   1.000  C  -0.208141
  C58      1.0000 0.83665  0.40445  0.43595  Biso   1.000  C  0.146819
  C59      1.0000 0.80220  0.39680  0.49820  Biso   1.000  C  -0.050846
  C60      1.0000 0.72768  0.42948  0.51896  Biso   1.000  C  0.153606
  C61      1.0000 0.69058  0.46708  0.47486  Biso   1.000  C  -0.197480
  C62      1.0000 0.91776  0.37056  0.41372  Biso   1.000  C  -0.523714
  C63      1.0000 0.68760  0.42420  0.58700  Biso   1.000  C  -0.522250
  C64      1.0000 0.95570  0.20540  0.68120  Biso   1.000  C  0.577131
  C65      1.0000 0.91449  0.25599  0.63383  Biso   1.000  C  -0.019661
  C66      1.0000 0.88841  0.23201  0.61127  Biso   1.000  C  -0.197510
  C67      1.0000 0.85136  0.27696  0.56882  Biso   1.000  C  0.155410
  C68      1.0000 0.84177  0.34747  0.54599  Biso   1.000  C  -0.037276
  C69      1.0000 0.86969  0.37369  0.56633  Biso   1.000  C  0.136239
  C70      1.0000 0.90633  0.32793  0.61121  Biso   1.000  C  -0.206152
  C71      1.0000 0.82121  0.24791  0.54707  Biso   1.000  C  -0.524551
  C72      1.0000 0.85657  0.45317  0.54479  Biso   1.000  C  -0.522964
  C73      1.0000 0.44074  0.68454  0.36698  Biso   1.000  C  0.602697
  C74      1.0000 0.38905  0.72545  0.41255  Biso   1.000  C  -0.018514
  C75      1.0000 0.36580  0.79920  0.39200  Biso   1.000  C  -0.204183
  C76      1.0000 0.32295  0.83665  0.43595  Biso   1.000  C  0.143810
  C77      1.0000 0.30280  0.80220  0.49820  Biso   1.000  C  -0.050423
  C78      1.0000 0.32388  0.72768  0.51896  Biso   1.000  C  0.154278
  C79      1.0000 0.36748  0.69058  0.47486  Biso   1.000  C  -0.199754
  C80      1.0000 0.29796  0.91776  0.41372  Biso   1.000  C  -0.523400
  C81      1.0000 0.30120  0.68760  0.58700  Biso   1.000  C  -0.522880
  C82      1.0000 0.15770  0.95570  0.68120  Biso   1.000  C  0.575597
  C83      1.0000 0.19569  0.91449  0.63383  Biso   1.000  C  -0.016976
  C84      1.0000 0.26831  0.88841  0.61127  Biso   1.000  C  -0.197455
  C85      1.0000 0.30286  0.85136  0.56882  Biso   1.000  C  0.156057
  C86      1.0000 0.26477  0.84177  0.54599  Biso   1.000  C  -0.040112
  C87      1.0000 0.19029  0.86969  0.56633  Biso   1.000  C  0.138486
  C88      1.0000 0.15453  0.90633  0.61121  Biso   1.000  C  -0.206998
  C89      1.0000 0.38381  0.82121  0.54707  Biso   1.000  C  -0.526983
  C90      1.0000 0.14547  0.85657  0.54479  Biso   1.000  C  -0.527669
  C91      1.0000 0.50774  0.44074  0.36698  Biso   1.000  C  0.600878
  C92      1.0000 0.47295  0.38905  0.41255  Biso   1.000  C  -0.018267
  C93      1.0000 0.44300  0.36580  0.39200  Biso   1.000  C  -0.208751
  C94      1.0000 0.40445  0.32295  0.43595  Biso   1.000  C  0.147218
  C95      1.0000 0.39680  0.30280  0.49820  Biso   1.000  C  -0.050831
  C96      1.0000 0.42948  0.32388  0.51896  Biso   1.000  C  0.152834
  C97      1.0000 0.46708  0.36748  0.47486  Biso   1.000  C  -0.195634
  C98      1.0000 0.37056  0.29796  0.41372  Biso   1.000  C  -0.525711
  C99      1.0000 0.42420  0.30120  0.58700  Biso   1.000  C  -0.518434
  C100     1.0000 0.20540  0.15770  0.68120  Biso   1.000  C  0.576001
  C101     1.0000 0.25599  0.19569  0.63383  Biso   1.000  C  -0.018221
  C102     1.0000 0.23201  0.26831  0.61127  Biso   1.000  C  -0.196776
  C103     1.0000 0.27696  0.30286  0.56882  Biso   1.000  C  0.157370
  C104     1.0000 0.34747  0.26477  0.54599  Biso   1.000  C  -0.042320
  C105     1.0000 0.37369  0.19029  0.56633  Biso   1.000  C  0.139154
  C106     1.0000 0.32793  0.15453  0.61121  Biso   1.000  C  -0.208105
  C107     1.0000 0.24791  0.38381  0.54707  Biso   1.000  C  -0.526511
  C108     1.0000 0.45317  0.14547  0.54479  Biso   1.000  C  -0.527536
  C109     1.0000 0.31546  0.49226  0.63302  Biso   1.000  C  0.602004
  C110     1.0000 0.27455  0.52705  0.58745  Biso   1.000  C  -0.017880
  C111     1.0000 0.20080  0.55700  0.60800  Biso   1.000  C  -0.208141
  C112     1.0000 0.16335  0.59555  0.56405  Biso   1.000  C  0.146819
  C113     1.0000 0.19780  0.60320  0.50180  Biso   1.000  C  -0.050846
  C114     1.0000 0.27232  0.57052  0.48104  Biso   1.000  C  0.153606
  C115     1.0000 0.30942  0.53292  0.52514  Biso   1.000  C  -0.197480
  C116     1.0000 0.08224  0.62944  0.58628  Biso   1.000  C  -0.523713
  C117     1.0000 0.31240  0.57580  0.41300  Biso   1.000  C  -0.522250
  C118     1.0000 0.04430  0.79460  0.31880  Biso   1.000  C  0.577131
  C119     1.0000 0.08551  0.74401  0.36617  Biso   1.000  C  -0.019661
  C120     1.0000 0.11159  0.76799  0.38873  Biso   1.000  C  -0.197510
  C121     1.0000 0.14864  0.72304  0.43118  Biso   1.000  C  0.155409
  C122     1.0000 0.15823  0.65253  0.45401  Biso   1.000  C  -0.037277
  C123     1.0000 0.13031  0.62631  0.43367  Biso   1.000  C  0.136239
  C124     1.0000 0.09367  0.67207  0.38879  Biso   1.000  C  -0.206153
  C125     1.0000 0.17879  0.75209  0.45293  Biso   1.000  C  -0.524551
  C126     1.0000 0.14343  0.54683  0.45521  Biso   1.000  C  -0.522964
  C127     1.0000 0.55926  0.31546  0.63302  Biso   1.000  C  0.602697
  C128     1.0000 0.61095  0.27455  0.58745  Biso   1.000  C  -0.018514
  C129     1.0000 0.63420  0.20080  0.60800  Biso   1.000  C  -0.204183
  C130     1.0000 0.67705  0.16335  0.56405  Biso   1.000  C  0.143810
  C131     1.0000 0.69720  0.19780  0.50180  Biso   1.000  C  -0.050423
  C132     1.0000 0.67612  0.27232  0.48104  Biso   1.000  C  0.154278
  C133     1.0000 0.63252  0.30942  0.52514  Biso   1.000  C  -0.199754
  C134     1.0000 0.70204  0.08224  0.58628  Biso   1.000  C  -0.523398
  C135     1.0000 0.69880  0.31240  0.41300  Biso   1.000  C  -0.522880
  C136     1.0000 0.84230  0.04430  0.31880  Biso   1.000  C  0.575597
  C137     1.0000 0.80431  0.08551  0.36617  Biso   1.000  C  -0.016976
  C138     1.0000 0.73169  0.11159  0.38873  Biso   1.000  C  -0.197455
  C139     1.0000 0.69714  0.14864  0.43118  Biso   1.000  C  0.156057
  C140     1.0000 0.73523  0.15823  0.45401  Biso   1.000  C  -0.040112
  C141     1.0000 0.80971  0.13031  0.43367  Biso   1.000  C  0.138486
  C142     1.0000 0.84547  0.09367  0.38879  Biso   1.000  C  -0.206999
  C143     1.0000 0.61619  0.17879  0.45293  Biso   1.000  C  -0.526983
  C144     1.0000 0.85453  0.14343  0.45521  Biso   1.000  C  -0.527668
  C145     1.0000 0.49226  0.55926  0.63302  Biso   1.000  C  0.600878
  C146     1.0000 0.52705  0.61095  0.58745  Biso   1.000  C  -0.018267
  C147     1.0000 0.55700  0.63420  0.60800  Biso   1.000  C  -0.208751
  C148     1.0000 0.59555  0.67705  0.56405  Biso   1.000  C  0.147218
  C149     1.0000 0.60320  0.69720  0.50180  Biso   1.000  C  -0.050831
  C150     1.0000 0.57052  0.67612  0.48104  Biso   1.000  C  0.152834
  C151     1.0000 0.53292  0.63252  0.52514  Biso   1.000  C  -0.195634
  C152     1.0000 0.62944  0.70204  0.58628  Biso   1.000  C  -0.525709
  C153     1.0000 0.57580  0.69880  0.41300  Biso   1.000  C  -0.518434
  C154     1.0000 0.79460  0.84230  0.31880  Biso   1.000  C  0.576001
  C155     1.0000 0.74401  0.80431  0.36617  Biso   1.000  C  -0.018221
  C156     1.0000 0.76799  0.73169  0.38873  Biso   1.000  C  -0.196776
  C157     1.0000 0.72304  0.69714  0.43118  Biso   1.000  C  0.157370
  C158     1.0000 0.65253  0.73523  0.45401  Biso   1.000  C  -0.042320
  C159     1.0000 0.62631  0.80971  0.43367  Biso   1.000  C  0.139154
  C160     1.0000 0.67207  0.84547  0.38879  Biso   1.000  C  -0.208106
  C161     1.0000 0.75209  0.61619  0.45293  Biso   1.000  C  -0.526511
  C162     1.0000 0.54683  0.85453  0.45521  Biso   1.000  C  -0.527535
  C163     1.0000 0.81546  0.05926  0.13302  Biso   1.000  C  0.602697
  C164     1.0000 0.77455  0.11095  0.08745  Biso   1.000  C  -0.018514
  C165     1.0000 0.70080  0.13420  0.10800  Biso   1.000  C  -0.204183
  C166     1.0000 0.66335  0.17705  0.06405  Biso   1.000  C  0.143810
  C167     1.0000 0.69780  0.19720  0.00180  Biso   1.000  C  -0.050423
  C168     1.0000 0.77232  0.17612  0.98104  Biso   1.000  C  0.154278
  C169     1.0000 0.80942  0.13252  0.02514  Biso   1.000  C  -0.199754
  C170     1.0000 0.58224  0.20204  0.08628  Biso   1.000  C  -0.523398
  C171     1.0000 0.81240  0.19880  0.91300  Biso   1.000  C  -0.522880
  C172     1.0000 0.54430  0.34230  0.81880  Biso   1.000  C  0.575597
  C173     1.0000 0.58551  0.30431  0.86617  Biso   1.000  C  -0.016976
  C174     1.0000 0.61159  0.23169  0.88873  Biso   1.000  C  -0.197455
  C175     1.0000 0.64864  0.19714  0.93118  Biso   1.000  C  0.156057
  C176     1.0000 0.65823  0.23523  0.95401  Biso   1.000  C  -0.040112
  C177     1.0000 0.63031  0.30971  0.93367  Biso   1.000  C  0.138485
  C178     1.0000 0.59367  0.34547  0.88879  Biso   1.000  C  -0.206998
  C179     1.0000 0.67879  0.11619  0.95293  Biso   1.000  C  -0.526983
  C180     1.0000 0.64343  0.35453  0.95521  Biso   1.000  C  -0.527668
  C181     1.0000 0.05926  0.99226  0.13302  Biso   1.000  C  0.600878
  C182     1.0000 0.11095  0.02705  0.08745  Biso   1.000  C  -0.018267
  C183     1.0000 0.13420  0.05700  0.10800  Biso   1.000  C  -0.208750
  C184     1.0000 0.17705  0.09555  0.06405  Biso   1.000  C  0.147218
  C185     1.0000 0.19720  0.10320  0.00180  Biso   1.000  C  -0.050831
  C186     1.0000 0.17612  0.07052  0.98104  Biso   1.000  C  0.152834
  C187     1.0000 0.13252  0.03292  0.02514  Biso   1.000  C  -0.195634
  C188     1.0000 0.20204  0.12944  0.08628  Biso   1.000  C  -0.525710
  C189     1.0000 0.19880  0.07580  0.91300  Biso   1.000  C  -0.518434
  C190     1.0000 0.34230  0.29460  0.81880  Biso   1.000  C  0.576002
  C191     1.0000 0.30431  0.24401  0.86617  Biso   1.000  C  -0.018221
  C192     1.0000 0.23169  0.26799  0.88873  Biso   1.000  C  -0.196776
  C193     1.0000 0.19714  0.22304  0.93118  Biso   1.000  C  0.157370
  C194     1.0000 0.23523  0.15253  0.95401  Biso   1.000  C  -0.042320
  C195     1.0000 0.30971  0.12631  0.93367  Biso   1.000  C  0.139153
  C196     1.0000 0.34547  0.17207  0.88879  Biso   1.000  C  -0.208105
  C197     1.0000 0.11619  0.25209  0.95293  Biso   1.000  C  -0.526511
  C198     1.0000 0.35453  0.04683  0.95521  Biso   1.000  C  -0.527535
  C199     1.0000 0.99226  0.81546  0.13302  Biso   1.000  C  0.602004
  C200     1.0000 0.02705  0.77455  0.08745  Biso   1.000  C  -0.017880
  C201     1.0000 0.05700  0.70080  0.10800  Biso   1.000  C  -0.208141
  C202     1.0000 0.09555  0.66335  0.06405  Biso   1.000  C  0.146819
  C203     1.0000 0.10320  0.69780  0.00180  Biso   1.000  C  -0.050846
  C204     1.0000 0.07052  0.77232  0.98104  Biso   1.000  C  0.153606
  C205     1.0000 0.03292  0.80942  0.02514  Biso   1.000  C  -0.197480
  C206     1.0000 0.12944  0.58224  0.08628  Biso   1.000  C  -0.523712
  C207     1.0000 0.07580  0.81240  0.91300  Biso   1.000  C  -0.522250
  C208     1.0000 0.29460  0.54430  0.81880  Biso   1.000  C  0.577130
  C209     1.0000 0.24401  0.58551  0.86617  Biso   1.000  C  -0.019661
  C210     1.0000 0.26799  0.61159  0.88873  Biso   1.000  C  -0.197510
  C211     1.0000 0.22304  0.64864  0.93118  Biso   1.000  C  0.155409
  C212     1.0000 0.15253  0.65823  0.95401  Biso   1.000  C  -0.037277
  C213     1.0000 0.12631  0.63031  0.93367  Biso   1.000  C  0.136239
  C214     1.0000 0.17207  0.59367  0.88879  Biso   1.000  C  -0.206153
  C215     1.0000 0.25209  0.67879  0.95293  Biso   1.000  C  -0.524551
  C216     1.0000 0.04683  0.64343  0.95521  Biso   1.000  C  -0.522963
  H1       1.0000 0.32310  0.87860  0.84970  Biso   1.000  H  0.129440
  H2       1.0000 0.14140  0.88240  0.98770  Biso   1.000  H  0.132069
  H3       1.0000 0.43730  0.75280  0.94180  Biso   1.000  H  0.159676
  H4       1.0000 0.43150  0.83210  0.91300  Biso   1.000  H  0.165911
  H5       1.0000 0.43520  0.79360  0.87250  Biso   1.000  H  0.165059
  H6       1.0000 0.14040  0.83630  0.09510  Biso   1.000  H  0.170638
  H7       1.0000 0.21170  0.79670  0.11250  Biso   1.000  H  0.162748
  H8       1.0000 0.18510  0.75630  0.09690  Biso   1.000  H  0.170597
  H9       1.0000 0.39610  0.79460  0.12540  Biso   1.000  H  0.127512
  H10      1.0000 0.42460  0.60520  0.12570  Biso   1.000  H  0.132799
  H11      1.0000 0.34500  0.90020  0.00390  Biso   1.000  H  0.162709
  H12      1.0000 0.27130  0.90060  0.05280  Biso   1.000  H  0.166146
  H13      1.0000 0.32810  0.90160  0.07110  Biso   1.000  H  0.165469
  H14      1.0000 0.39540  0.63250  0.00960  Biso   1.000  H  0.169083
  H15      1.0000 0.35260  0.60330  0.07830  Biso   1.000  H  0.169620
  H16      1.0000 0.31330  0.67260  0.03330  Biso   1.000  H  0.159813
  H17      1.0000 0.87860  0.94860  0.84970  Biso   1.000  H  0.130699
  H18      1.0000 0.88240  0.98850  0.98770  Biso   1.000  H  0.130537
  H19      1.0000 0.75280  0.86810  0.94180  Biso   1.000  H  0.160123
  H20      1.0000 0.83210  0.82340  0.91300  Biso   1.000  H  0.165930
  H21      1.0000 0.79360  0.89870  0.87250  Biso   1.000  H  0.166345
  H22      1.0000 0.83630  0.92820  0.09510  Biso   1.000  H  0.169025
  H23      1.0000 0.79670  0.87910  0.11250  Biso   1.000  H  0.161281
  H24      1.0000 0.75630  0.96170  0.09690  Biso   1.000  H  0.169636
  H25      1.0000 0.79460  0.68390  0.12540  Biso   1.000  H  0.127066
  H26      1.0000 0.60520  0.84450  0.12570  Biso   1.000  H  0.133802
  H27      1.0000 0.90020  0.75090  0.00390  Biso   1.000  H  0.162447
  H28      1.0000 0.90060  0.77530  0.05280  Biso   1.000  H  0.166358
  H29      1.0000 0.90160  0.69920  0.07110  Biso   1.000  H  0.165408
  H30      1.0000 0.63250  0.96250  0.00960  Biso   1.000  H  0.168338
  H31      1.0000 0.60330  0.96580  0.07830  Biso   1.000  H  0.168954
  H32      1.0000 0.67260  0.98080  0.03330  Biso   1.000  H  0.161106
  H33      1.0000 0.94860  0.32310  0.84970  Biso   1.000  H  0.130856
  H34      1.0000 0.98850  0.14140  0.98770  Biso   1.000  H  0.130793
  H35      1.0000 0.86810  0.43730  0.94180  Biso   1.000  H  0.159767
  H36      1.0000 0.82340  0.43150  0.91300  Biso   1.000  H  0.165255
  H37      1.0000 0.89870  0.43520  0.87250  Biso   1.000  H  0.165075
  H38      1.0000 0.92820  0.14040  0.09510  Biso   1.000  H  0.170765
  H39      1.0000 0.87910  0.21170  0.11250  Biso   1.000  H  0.162439
  H40      1.0000 0.96170  0.18510  0.09690  Biso   1.000  H  0.169906
  H41      1.0000 0.68390  0.39610  0.12540  Biso   1.000  H  0.128338
  H42      1.0000 0.84450  0.42460  0.12570  Biso   1.000  H  0.133361
  H43      1.0000 0.75090  0.34500  0.00390  Biso   1.000  H  0.162336
  H44      1.0000 0.77530  0.27130  0.05280  Biso   1.000  H  0.165617
  H45      1.0000 0.69920  0.32810  0.07110  Biso   1.000  H  0.164298
  H46      1.0000 0.96250  0.39540  0.00960  Biso   1.000  H  0.168146
  H47      1.0000 0.96580  0.35260  0.07830  Biso   1.000  H  0.167326
  H48      1.0000 0.98080  0.31330  0.03330  Biso   1.000  H  0.158567
  H49      1.0000 0.82310  0.44860  0.34970  Biso   1.000  H  0.130854
  H50      1.0000 0.64140  0.48850  0.48770  Biso   1.000  H  0.130793
  H51      1.0000 0.93730  0.36810  0.44180  Biso   1.000  H  0.159768
  H52      1.0000 0.93150  0.32340  0.41300  Biso   1.000  H  0.165256
  H53      1.0000 0.93520  0.39870  0.37250  Biso   1.000  H  0.165074
  H54      1.0000 0.64040  0.42820  0.59510  Biso   1.000  H  0.170765
  H55      1.0000 0.71170  0.37910  0.61250  Biso   1.000  H  0.162439
  H56      1.0000 0.68510  0.46170  0.59690  Biso   1.000  H  0.169906
  H57      1.0000 0.89610  0.18390  0.62540  Biso   1.000  H  0.128339
  H58      1.0000 0.92460  0.34450  0.62570  Biso   1.000  H  0.133360
  H59      1.0000 0.84500  0.25090  0.50390  Biso   1.000  H  0.162336
  H60      1.0000 0.77130  0.27530  0.55280  Biso   1.000  H  0.165617
  H61      1.0000 0.82810  0.19920  0.57110  Biso   1.000  H  0.164298
  H62      1.0000 0.89540  0.46250  0.50960  Biso   1.000  H  0.168146
  H63      1.0000 0.85260  0.46580  0.57830  Biso   1.000  H  0.167325
  H64      1.0000 0.81330  0.48080  0.53330  Biso   1.000  H  0.158567
  H65      1.0000 0.37860  0.82310  0.34970  Biso   1.000  H  0.129439
  H66      1.0000 0.38240  0.64140  0.48770  Biso   1.000  H  0.132069
  H67      1.0000 0.25280  0.93730  0.44180  Biso   1.000  H  0.159675
  H68      1.0000 0.33210  0.93150  0.41300  Biso   1.000  H  0.165911
  H69      1.0000 0.29360  0.93520  0.37250  Biso   1.000  H  0.165058
  H70      1.0000 0.33630  0.64040  0.59510  Biso   1.000  H  0.170638
  H71      1.0000 0.29670  0.71170  0.61250  Biso   1.000  H  0.162748
  H72      1.0000 0.25630  0.68510  0.59690  Biso   1.000  H  0.170597
  H73      1.0000 0.29460  0.89610  0.62540  Biso   1.000  H  0.127512
  H74      1.0000 0.10520  0.92460  0.62570  Biso   1.000  H  0.132797
  H75      1.0000 0.40020  0.84500  0.50390  Biso   1.000  H  0.162709
  H76      1.0000 0.40060  0.77130  0.55280  Biso   1.000  H  0.166146
  H77      1.0000 0.40160  0.82810  0.57110  Biso   1.000  H  0.165469
  H78      1.0000 0.13250  0.89540  0.50960  Biso   1.000  H  0.169083
  H79      1.0000 0.10330  0.85260  0.57830  Biso   1.000  H  0.169620
  H80      1.0000 0.17260  0.81330  0.53330  Biso   1.000  H  0.159813
  H81      1.0000 0.44860  0.37860  0.34970  Biso   1.000  H  0.130698
  H82      1.0000 0.48850  0.38240  0.48770  Biso   1.000  H  0.130537
  H83      1.0000 0.36810  0.25280  0.44180  Biso   1.000  H  0.160123
  H84      1.0000 0.32340  0.33210  0.41300  Biso   1.000  H  0.165930
  H85      1.0000 0.39870  0.29360  0.37250  Biso   1.000  H  0.166345
  H86      1.0000 0.42820  0.33630  0.59510  Biso   1.000  H  0.169025
  H87      1.0000 0.37910  0.29670  0.61250  Biso   1.000  H  0.161281
  H88      1.0000 0.46170  0.25630  0.59690  Biso   1.000  H  0.169636
  H89      1.0000 0.18390  0.29460  0.62540  Biso   1.000  H  0.127065
  H90      1.0000 0.34450  0.10520  0.62570  Biso   1.000  H  0.133801
  H91      1.0000 0.25090  0.40020  0.50390  Biso   1.000  H  0.162447
  H92      1.0000 0.27530  0.40060  0.55280  Biso   1.000  H  0.166358
  H93      1.0000 0.19920  0.40160  0.57110  Biso   1.000  H  0.165408
  H94      1.0000 0.46250  0.13250  0.50960  Biso   1.000  H  0.168338
  H95      1.0000 0.46580  0.10330  0.57830  Biso   1.000  H  0.168953
  H96      1.0000 0.48080  0.17260  0.53330  Biso   1.000  H  0.161106
  H97      1.0000 0.17690  0.55140  0.65030  Biso   1.000  H  0.130855
  H98      1.0000 0.35860  0.51150  0.51230  Biso   1.000  H  0.130793
  H99      1.0000 0.06270  0.63190  0.55820  Biso   1.000  H  0.159767
  H100     1.0000 0.06850  0.67660  0.58700  Biso   1.000  H  0.165255
  H101     1.0000 0.06480  0.60130  0.62750  Biso   1.000  H  0.165072
  H102     1.0000 0.35960  0.57180  0.40490  Biso   1.000  H  0.170765
  H103     1.0000 0.28830  0.62090  0.38750  Biso   1.000  H  0.162439
  H104     1.0000 0.31490  0.53830  0.40310  Biso   1.000  H  0.169906
  H105     1.0000 0.10390  0.81610  0.37460  Biso   1.000  H  0.128339
  H106     1.0000 0.07540  0.65550  0.37430  Biso   1.000  H  0.133361
  H107     1.0000 0.15500  0.74910  0.49610  Biso   1.000  H  0.162336
  H108     1.0000 0.22870  0.72470  0.44720  Biso   1.000  H  0.165617
  H109     1.0000 0.17190  0.80080  0.42890  Biso   1.000  H  0.164297
  H110     1.0000 0.10460  0.53750  0.49040  Biso   1.000  H  0.168146
  H111     1.0000 0.14740  0.53420  0.42170  Biso   1.000  H  0.167323
  H112     1.0000 0.18670  0.51920  0.46670  Biso   1.000  H  0.158567
  H113     1.0000 0.62140  0.17690  0.65030  Biso   1.000  H  0.129439
  H114     1.0000 0.61760  0.35860  0.51230  Biso   1.000  H  0.132069
  H115     1.0000 0.74720  0.06270  0.55820  Biso   1.000  H  0.159674
  H116     1.0000 0.66790  0.06850  0.58700  Biso   1.000  H  0.165909
  H117     1.0000 0.70640  0.06480  0.62750  Biso   1.000  H  0.165055
  H118     1.0000 0.66370  0.35960  0.40490  Biso   1.000  H  0.170638
  H119     1.0000 0.70330  0.28830  0.38750  Biso   1.000  H  0.162748
  H120     1.0000 0.74370  0.31490  0.40310  Biso   1.000  H  0.170597
  H121     1.0000 0.70540  0.10390  0.37460  Biso   1.000  H  0.127512
  H122     1.0000 0.89480  0.07540  0.37430  Biso   1.000  H  0.132797
  H123     1.0000 0.59980  0.15500  0.49610  Biso   1.000  H  0.162709
  H124     1.0000 0.59940  0.22870  0.44720  Biso   1.000  H  0.166145
  H125     1.0000 0.59840  0.17190  0.42890  Biso   1.000  H  0.165469
  H126     1.0000 0.86750  0.10460  0.49040  Biso   1.000  H  0.169082
  H127     1.0000 0.89670  0.14740  0.42170  Biso   1.000  H  0.169618
  H128     1.0000 0.82740  0.18670  0.46670  Biso   1.000  H  0.159813
  H129     1.0000 0.55140  0.62140  0.65030  Biso   1.000  H  0.130699
  H130     1.0000 0.51150  0.61760  0.51230  Biso   1.000  H  0.130537
  H131     1.0000 0.63190  0.74720  0.55820  Biso   1.000  H  0.160122
  H132     1.0000 0.67660  0.66790  0.58700  Biso   1.000  H  0.165928
  H133     1.0000 0.60130  0.70640  0.62750  Biso   1.000  H  0.166342
  H134     1.0000 0.57180  0.66370  0.40490  Biso   1.000  H  0.169025
  H135     1.0000 0.62090  0.70330  0.38750  Biso   1.000  H  0.161281
  H136     1.0000 0.53830  0.74370  0.40310  Biso   1.000  H  0.169636
  H137     1.0000 0.81610  0.70540  0.37460  Biso   1.000  H  0.127066
  H138     1.0000 0.65550  0.89480  0.37430  Biso   1.000  H  0.133802
  H139     1.0000 0.74910  0.59980  0.49610  Biso   1.000  H  0.162447
  H140     1.0000 0.72470  0.59940  0.44720  Biso   1.000  H  0.166358
  H141     1.0000 0.80080  0.59840  0.42890  Biso   1.000  H  0.165407
  H142     1.0000 0.53750  0.86750  0.49040  Biso   1.000  H  0.168338
  H143     1.0000 0.53420  0.89670  0.42170  Biso   1.000  H  0.168951
  H144     1.0000 0.51920  0.82740  0.46670  Biso   1.000  H  0.161106
  H145     1.0000 0.67690  0.12140  0.15030  Biso   1.000  H  0.129439
  H146     1.0000 0.85860  0.11760  0.01230  Biso   1.000  H  0.132069
  H147     1.0000 0.56270  0.24720  0.05820  Biso   1.000  H  0.159675
  H148     1.0000 0.56850  0.16790  0.08700  Biso   1.000  H  0.165909
  H149     1.0000 0.56480  0.20640  0.12750  Biso   1.000  H  0.165055
  H150     1.0000 0.85960  0.16370  0.90490  Biso   1.000  H  0.170638
  H151     1.0000 0.78830  0.20330  0.88750  Biso   1.000  H  0.162748
  H152     1.0000 0.81490  0.24370  0.90310  Biso   1.000  H  0.170597
  H153     1.0000 0.60390  0.20540  0.87460  Biso   1.000  H  0.127512
  H154     1.0000 0.57540  0.39480  0.87430  Biso   1.000  H  0.132797
  H155     1.0000 0.65500  0.09980  0.99610  Biso   1.000  H  0.162709
  H156     1.0000 0.72870  0.09940  0.94720  Biso   1.000  H  0.166145
  H157     1.0000 0.67190  0.09840  0.92890  Biso   1.000  H  0.165468
  H158     1.0000 0.60460  0.36750  0.99040  Biso   1.000  H  0.169082
  H159     1.0000 0.64740  0.39670  0.92170  Biso   1.000  H  0.169618
  H160     1.0000 0.68670  0.32740  0.96670  Biso   1.000  H  0.159813
  H161     1.0000 0.12140  0.05140  0.15030  Biso   1.000  H  0.130698
  H162     1.0000 0.11760  0.01150  0.01230  Biso   1.000  H  0.130537
  H163     1.0000 0.24720  0.13190  0.05820  Biso   1.000  H  0.160122
  H164     1.0000 0.16790  0.17660  0.08700  Biso   1.000  H  0.165928
  H165     1.0000 0.20640  0.10130  0.12750  Biso   1.000  H  0.166342
  H166     1.0000 0.16370  0.07180  0.90490  Biso   1.000  H  0.169025
  H167     1.0000 0.20330  0.12090  0.88750  Biso   1.000  H  0.161281
  H168     1.0000 0.24370  0.03830  0.90310  Biso   1.000  H  0.169636
  H169     1.0000 0.20540  0.31610  0.87460  Biso   1.000  H  0.127065
  H170     1.0000 0.39480  0.15550  0.87430  Biso   1.000  H  0.133801
  H171     1.0000 0.09980  0.24910  0.99610  Biso   1.000  H  0.162447
  H172     1.0000 0.09940  0.22470  0.94720  Biso   1.000  H  0.166358
  H173     1.0000 0.09840  0.30080  0.92890  Biso   1.000  H  0.165407
  H174     1.0000 0.36750  0.03750  0.99040  Biso   1.000  H  0.168337
  H175     1.0000 0.39670  0.03420  0.92170  Biso   1.000  H  0.168951
  H176     1.0000 0.32740  0.01920  0.96670  Biso   1.000  H  0.161106
  H177     1.0000 0.05140  0.67690  0.15030  Biso   1.000  H  0.130854
  H178     1.0000 0.01150  0.85860  0.01230  Biso   1.000  H  0.130793
  H179     1.0000 0.13190  0.56270  0.05820  Biso   1.000  H  0.159766
  H180     1.0000 0.17660  0.56850  0.08700  Biso   1.000  H  0.165254
  H181     1.0000 0.10130  0.56480  0.12750  Biso   1.000  H  0.165072
  H182     1.0000 0.07180  0.85960  0.90490  Biso   1.000  H  0.170765
  H183     1.0000 0.12090  0.78830  0.88750  Biso   1.000  H  0.162439
  H184     1.0000 0.03830  0.81490  0.90310  Biso   1.000  H  0.169906
  H185     1.0000 0.31610  0.60390  0.87460  Biso   1.000  H  0.128338
  H186     1.0000 0.15550  0.57540  0.87430  Biso   1.000  H  0.133360
  H187     1.0000 0.24910  0.65500  0.99610  Biso   1.000  H  0.162336
  H188     1.0000 0.22470  0.72870  0.94720  Biso   1.000  H  0.165617
  H189     1.0000 0.30080  0.67190  0.92890  Biso   1.000  H  0.164297
  H190     1.0000 0.03750  0.60460  0.99040  Biso   1.000  H  0.168146
  H191     1.0000 0.03420  0.64740  0.92170  Biso   1.000  H  0.167323
  H192     1.0000 0.01920  0.68670  0.96670  Biso   1.000  H  0.158567
  O1       1.0000 0.21695  0.96281  0.81046  Biso   1.000  O  -0.554143
  O2       1.0000 0.11711  0.96109  0.88939  Biso   1.000  O  -0.554693
  O3       1.0000 0.48431  0.58951  0.19407  Biso   1.000  O  -0.518439
  O4       1.0000 0.46457  0.70037  0.19599  Biso   1.000  O  -0.539900
  O5       1.0000 0.96281  0.00978  0.81046  Biso   1.000  O  -0.553468
  O6       1.0000 0.96109  0.03241  0.88939  Biso   1.000  O  -0.553829
  O7       1.0000 0.58951  0.73211  0.19407  Biso   1.000  O  -0.518565
  O8       1.0000 0.70037  0.63907  0.19599  Biso   1.000  O  -0.539309
  O9       1.0000 0.00978  0.21695  0.81046  Biso   1.000  O  -0.553699
  O10      1.0000 0.03241  0.11711  0.88939  Biso   1.000  O  -0.555033
  O11      1.0000 0.73211  0.48431  0.19407  Biso   1.000  O  -0.518884
  O12      1.0000 0.63907  0.46457  0.19599  Biso   1.000  O  -0.539852
  O13      1.0000 0.71695  0.50978  0.31046  Biso   1.000  O  -0.553699
  O14      1.0000 0.61711  0.53241  0.38939  Biso   1.000  O  -0.555033
  O15      1.0000 0.98431  0.23211  0.69407  Biso   1.000  O  -0.518884
  O16      1.0000 0.96457  0.13907  0.69599  Biso   1.000  O  -0.539852
  O17      1.0000 0.46281  0.71695  0.31046  Biso   1.000  O  -0.554143
  O18      1.0000 0.46109  0.61711  0.38939  Biso   1.000  O  -0.554693
  O19      1.0000 0.08951  0.98431  0.69407  Biso   1.000  O  -0.518439
  O20      1.0000 0.20037  0.96457  0.69599  Biso   1.000  O  -0.539900
  O21      1.0000 0.50978  0.46281  0.31046  Biso   1.000  O  -0.553468
  O22      1.0000 0.53241  0.46109  0.38939  Biso   1.000  O  -0.553829
  O23      1.0000 0.23211  0.08951  0.69407  Biso   1.000  O  -0.518565
  O24      1.0000 0.13907  0.20037  0.69599  Biso   1.000  O  -0.539309
  O25      1.0000 0.07841  0.07841  0.76477  Biso   1.000  O  -1.030140
  O26      1.0000 0.57841  0.57841  0.26477  Biso   1.000  O  -1.030139
  O27      1.0000 0.28305  0.49022  0.68954  Biso   1.000  O  -0.553699
  O28      1.0000 0.38289  0.46759  0.61061  Biso   1.000  O  -0.555033
  O29      1.0000 0.01569  0.76789  0.30593  Biso   1.000  O  -0.518884
  O30      1.0000 0.03543  0.86093  0.30401  Biso   1.000  O  -0.539852
  O31      1.0000 0.53719  0.28305  0.68954  Biso   1.000  O  -0.554143
  O32      1.0000 0.53891  0.38289  0.61061  Biso   1.000  O  -0.554693
  O33      1.0000 0.91049  0.01569  0.30593  Biso   1.000  O  -0.518439
  O34      1.0000 0.79963  0.03543  0.30401  Biso   1.000  O  -0.539900
  O35      1.0000 0.49022  0.53719  0.68954  Biso   1.000  O  -0.553468
  O36      1.0000 0.46759  0.53891  0.61061  Biso   1.000  O  -0.553829
  O37      1.0000 0.76789  0.91049  0.30593  Biso   1.000  O  -0.518565
  O38      1.0000 0.86093  0.79963  0.30401  Biso   1.000  O  -0.539309
  O39      1.0000 0.78305  0.03719  0.18954  Biso   1.000  O  -0.554143
  O40      1.0000 0.88289  0.03891  0.11061  Biso   1.000  O  -0.554693
  O41      1.0000 0.51569  0.41049  0.80593  Biso   1.000  O  -0.518439
  O42      1.0000 0.53543  0.29963  0.80401  Biso   1.000  O  -0.539900
  O43      1.0000 0.03719  0.99022  0.18954  Biso   1.000  O  -0.553468
  O44      1.0000 0.03891  0.96759  0.11061  Biso   1.000  O  -0.553829
  O45      1.0000 0.41049  0.26789  0.80593  Biso   1.000  O  -0.518565
  O46      1.0000 0.29963  0.36093  0.80401  Biso   1.000  O  -0.539309
  O47      1.0000 0.99022  0.78305  0.18954  Biso   1.000  O  -0.553699
  O48      1.0000 0.96759  0.88289  0.11061  Biso   1.000  O  -0.555033
  O49      1.0000 0.26789  0.51569  0.80593  Biso   1.000  O  -0.518883
  O50      1.0000 0.36093  0.53543  0.80401  Biso   1.000  O  -0.539852
  O51      1.0000 0.42159  0.42159  0.73523  Biso   1.000  O  -1.030139
  O52      1.0000 0.92159  0.92159  0.23523  Biso   1.000  O  -1.030140
  Zn1      1.0000 0.18028  0.02726  0.73714  Biso   1.000  Zn  0.953458
  Zn2      1.0000 0.02726  0.05532  0.73714  Biso   1.000  Zn  0.952685
  Zn3      1.0000 0.05532  0.18028  0.73714  Biso   1.000  Zn  0.953034
  Zn4      1.0000 0.68028  0.55532  0.23714  Biso   1.000  Zn  0.953034
  Zn5      1.0000 0.52726  0.68028  0.23714  Biso   1.000  Zn  0.953458
  Zn6      1.0000 0.55532  0.52726  0.23714  Biso   1.000  Zn  0.952685
  Zn7      1.0000 0.04853  0.04853  0.85441  Biso   1.000  Zn  0.936884
  Zn8      1.0000 0.54853  0.54853  0.35441  Biso   1.000  Zn  0.936884
  Zn9      1.0000 0.31972  0.44468  0.76286  Biso   1.000  Zn  0.953034
  Zn10     1.0000 0.47274  0.31972  0.76286  Biso   1.000  Zn  0.953458
  Zn11     1.0000 0.44468  0.47274  0.76286  Biso   1.000  Zn  0.952685
  Zn12     1.0000 0.81972  0.97274  0.26286  Biso   1.000  Zn  0.953458
  Zn13     1.0000 0.97274  0.94468  0.26286  Biso   1.000  Zn  0.952685
  Zn14     1.0000 0.94468  0.81972  0.26286  Biso   1.000  Zn  0.953034
  Zn15     1.0000 0.45147  0.45147  0.64559  Biso   1.000  Zn  0.936884
  Zn16     1.0000 0.95147  0.95147  0.14559  Biso   1.000  Zn  0.936884
