data_image0
_cell_length_a       8.8
_cell_length_b       13.11
_cell_length_c       20.734
_cell_angle_alpha    90
_cell_angle_beta     90
_cell_angle_gamma    90

_symmetry_space_group_name_H-M    "P 1"
_symmetry_int_tables_number       1

loop_
  _symmetry_equiv_pos_as_xyz
  'x, y, z'

loop_
  _atom_site_label
  _atom_site_occupancy
  _atom_site_fract_x
  _atom_site_fract_y
  _atom_site_fract_z
  _atom_site_thermal_displace_type
  _atom_site_B_iso_or_equiv
  _atom_site_type_symbol
  _atom_site_charge
  C1       1.0000 0.17400  0.12850  0.94490  Biso   1.000  C  -0.142040
  C2       1.0000 0.45690  0.51860  0.64060  Biso   1.000  C  -0.138205
  C3       1.0000 0.14440  0.62980  0.14110  Biso   1.000  C  0.668385
  C4       1.0000 0.14280  0.96960  0.40100  Biso   1.000  C  0.001944
  C5       1.0000 0.13700  0.09280  0.00340  Biso   1.000  C  -0.125439
  C6       1.0000 0.20240  0.58050  0.08210  Biso   1.000  C  -0.053948
  C7       1.0000 0.13700  0.09280  0.49660  Biso   1.000  C  -0.125470
  C8       1.0000 0.18020  0.87600  0.12600  Biso   1.000  C  -0.020114
  C9       1.0000 0.31980  0.37600  0.62600  Biso   1.000  C  -0.019876
  C10      1.0000 0.35560  0.12980  0.64110  Biso   1.000  C  0.668323
  C11      1.0000 0.36300  0.59280  0.50340  Biso   1.000  C  -0.125429
  C12      1.0000 0.04310  0.01860  0.14060  Biso   1.000  C  -0.138792
  C13      1.0000 0.29760  0.08050  0.58210  Biso   1.000  C  -0.053022
  C14      1.0000 0.32500  0.50990  0.53390  Biso   1.000  C  0.084084
  C15      1.0000 0.14440  0.62980  0.35890  Biso   1.000  C  0.668387
  C16      1.0000 0.32600  0.62850  0.44490  Biso   1.000  C  -0.142731
  C17      1.0000 0.14280  0.96960  0.09900  Biso   1.000  C  0.001944
  C18      1.0000 0.19700  0.46530  0.50640  Biso   1.000  C  -0.141671
  C19      1.0000 0.35720  0.46960  0.59900  Biso   1.000  C  0.001714
  C20      1.0000 0.45690  0.51860  0.85940  Biso   1.000  C  -0.138205
  C21      1.0000 0.36300  0.59280  0.99660  Biso   1.000  C  -0.125432
  C22      1.0000 0.17400  0.12850  0.55510  Biso   1.000  C  -0.142002
  C23      1.0000 0.35720  0.46960  0.90100  Biso   1.000  C  0.001716
  C24      1.0000 0.20240  0.58050  0.41790  Biso   1.000  C  -0.053939
  C25      1.0000 0.13800  0.50160  0.04890  Biso   1.000  C  -0.108495
  C26      1.0000 0.18020  0.87600  0.37400  Biso   1.000  C  -0.020119
  C27      1.0000 0.13800  0.50160  0.45110  Biso   1.000  C  -0.108480
  C28      1.0000 0.60000  0.46400  0.75000  Biso   1.000  C  -0.031953
  C29      1.0000 0.35560  0.12980  0.85890  Biso   1.000  C  0.668323
  C30      1.0000 0.36200  0.00160  0.95110  Biso   1.000  C  -0.108278
  C31      1.0000 0.31980  0.37600  0.87400  Biso   1.000  C  -0.019876
  C32      1.0000 0.17500  0.00990  0.46610  Biso   1.000  C  0.083779
  C33      1.0000 0.36200  0.00160  0.54890  Biso   1.000  C  -0.108270
  C34      1.0000 0.17500  0.00990  0.03390  Biso   1.000  C  0.083776
  C35      1.0000 0.30300  0.96530  0.49360  Biso   1.000  C  -0.141994
  C36      1.0000 0.30300  0.96530  0.00640  Biso   1.000  C  -0.141989
  C37      1.0000 0.29760  0.08050  0.91790  Biso   1.000  C  -0.053001
  C38      1.0000 0.90000  0.96400  0.25000  Biso   1.000  C  -0.031667
  C39      1.0000 0.32600  0.62850  0.05510  Biso   1.000  C  -0.142723
  C40      1.0000 0.19700  0.46530  0.99360  Biso   1.000  C  -0.141661
  C41      1.0000 0.04310  0.01860  0.35940  Biso   1.000  C  -0.138793
  C42      1.0000 0.32500  0.50990  0.96610  Biso   1.000  C  0.084083
  C43      1.0000 0.68020  0.62400  0.37400  Biso   1.000  C  -0.020259
  C44      1.0000 0.67500  0.49010  0.46610  Biso   1.000  C  0.083065
  C45      1.0000 0.95690  0.98140  0.85940  Biso   1.000  C  -0.142104
  C46      1.0000 0.86300  0.90720  0.50340  Biso   1.000  C  -0.125950
  C47      1.0000 0.63800  0.99840  0.45110  Biso   1.000  C  -0.108963
  C48      1.0000 0.70240  0.91950  0.41790  Biso   1.000  C  -0.054678
  C49      1.0000 0.85560  0.37020  0.64110  Biso   1.000  C  0.666660
  C50      1.0000 0.82500  0.99010  0.53390  Biso   1.000  C  0.084895
  C51      1.0000 0.82600  0.87150  0.44490  Biso   1.000  C  -0.143107
  C52      1.0000 0.81980  0.12400  0.87400  Biso   1.000  C  -0.023570
  C53      1.0000 0.40000  0.53600  0.25000  Biso   1.000  C  -0.031733
  C54      1.0000 0.80300  0.53470  0.00640  Biso   1.000  C  -0.142188
  C55      1.0000 0.67400  0.37150  0.94490  Biso   1.000  C  -0.142851
  C56      1.0000 0.64280  0.53040  0.40100  Biso   1.000  C  0.002024
  C57      1.0000 0.86200  0.49840  0.95110  Biso   1.000  C  -0.109034
  C58      1.0000 0.67400  0.37150  0.55510  Biso   1.000  C  -0.142855
  C59      1.0000 0.10000  0.03600  0.75000  Biso   1.000  C  -0.031826
  C60      1.0000 0.79760  0.41950  0.58210  Biso   1.000  C  -0.052673
  C61      1.0000 0.80300  0.53470  0.49360  Biso   1.000  C  -0.142187
  C62      1.0000 0.63700  0.40720  0.49660  Biso   1.000  C  -0.125817
  C63      1.0000 0.85720  0.03040  0.59900  Biso   1.000  C  -0.000006
  C64      1.0000 0.81980  0.12400  0.62600  Biso   1.000  C  -0.023570
  C65      1.0000 0.69700  0.03470  0.99360  Biso   1.000  C  -0.141965
  C66      1.0000 0.95690  0.98140  0.64060  Biso   1.000  C  -0.142102
  C67      1.0000 0.63700  0.40720  0.00340  Biso   1.000  C  -0.125849
  C68      1.0000 0.64440  0.87020  0.35890  Biso   1.000  C  0.668435
  C69      1.0000 0.69700  0.03470  0.50640  Biso   1.000  C  -0.141946
  C70      1.0000 0.67500  0.49010  0.03390  Biso   1.000  C  0.083097
  C71      1.0000 0.82500  0.99010  0.96610  Biso   1.000  C  0.084864
  C72      1.0000 0.68020  0.62400  0.12600  Biso   1.000  C  -0.020254
  C73      1.0000 0.82600  0.87150  0.05510  Biso   1.000  C  -0.143150
  C74      1.0000 0.64440  0.87020  0.14110  Biso   1.000  C  0.668434
  C75      1.0000 0.63800  0.99840  0.04890  Biso   1.000  C  -0.108948
  C76      1.0000 0.54310  0.48140  0.35940  Biso   1.000  C  -0.139113
  C77      1.0000 0.86300  0.90720  0.99660  Biso   1.000  C  -0.125890
  C78      1.0000 0.85560  0.37020  0.85890  Biso   1.000  C  0.666658
  C79      1.0000 0.79760  0.41950  0.91790  Biso   1.000  C  -0.052665
  C80      1.0000 0.64280  0.53040  0.09900  Biso   1.000  C  0.002021
  C81      1.0000 0.54310  0.48140  0.14060  Biso   1.000  C  -0.139110
  C82      1.0000 0.86200  0.49840  0.54890  Biso   1.000  C  -0.109028
  C83      1.0000 0.85720  0.03040  0.90100  Biso   1.000  C  -0.000001
  C84      1.0000 0.70240  0.91950  0.08210  Biso   1.000  C  -0.054669
  Cu1      1.0000 0.35000  0.26460  0.75000  Biso   1.000  Cu  0.870739
  Cu2      1.0000 0.15000  0.76460  0.25000  Biso   1.000  Cu  0.868194
  Cu3      1.0000 0.65000  0.73540  0.25000  Biso   1.000  Cu  0.868211
  Cu4      1.0000 0.85000  0.23540  0.75000  Biso   1.000  Cu  0.832367
  H1       1.0000 0.15080  0.40840  0.52680  Biso   1.000  H  0.109801
  H2       1.0000 0.40500  0.85320  0.21260  Biso   1.000  H  0.386385
  H3       1.0000 0.84540  0.02980  0.25000  Biso   1.000  H  0.157107
  H4       1.0000 0.99910  0.08390  0.36590  Biso   1.000  H  0.138431
  H5       1.0000 0.07080  0.13610  0.47300  Biso   1.000  H  0.082211
  H6       1.0000 0.04820  0.47120  0.43450  Biso   1.000  H  0.105048
  H7       1.0000 0.07080  0.13610  0.02700  Biso   1.000  H  0.082209
  H8       1.0000 0.34920  0.90840  0.02680  Biso   1.000  H  0.109565
  H9       1.0000 0.25330  0.32670  0.89220  Biso   1.000  H  0.131611
  H10      1.0000 0.99910  0.08390  0.13410  Biso   1.000  H  0.138430
  H11      1.0000 0.67410  0.40680  0.75000  Biso   1.000  H  0.158081
  H12      1.0000 0.50090  0.58390  0.86590  Biso   1.000  H  0.138526
  H13      1.0000 0.42920  0.63610  0.97300  Biso   1.000  H  0.082388
  H14      1.0000 0.65460  0.52980  0.75000  Biso   1.000  H  0.157215
  H15      1.0000 0.45180  0.97120  0.56550  Biso   1.000  H  0.105220
  H16      1.0000 0.09500  0.35320  0.78740  Biso   1.000  H  0.386003
  H17      1.0000 0.15080  0.40840  0.97320  Biso   1.000  H  0.109797
  H18      1.0000 0.25330  0.32670  0.60780  Biso   1.000  H  0.131610
  H19      1.0000 0.09500  0.35320  0.71260  Biso   1.000  H  0.386003
  H20      1.0000 0.04820  0.47120  0.06550  Biso   1.000  H  0.105042
  H21      1.0000 0.42920  0.63610  0.52700  Biso   1.000  H  0.082392
  H22      1.0000 0.50090  0.58390  0.63410  Biso   1.000  H  0.138526
  H23      1.0000 0.24670  0.82670  0.39220  Biso   1.000  H  0.131549
  H24      1.0000 0.40500  0.85320  0.28740  Biso   1.000  H  0.386383
  H25      1.0000 0.34920  0.90840  0.47320  Biso   1.000  H  0.109566
  H26      1.0000 0.45180  0.97120  0.93450  Biso   1.000  H  0.105221
  H27      1.0000 0.38010  0.68180  0.42410  Biso   1.000  H  0.122190
  H28      1.0000 0.82590  0.90680  0.25000  Biso   1.000  H  0.157062
  H29      1.0000 0.11990  0.18180  0.57590  Biso   1.000  H  0.122539
  H30      1.0000 0.38010  0.68180  0.07590  Biso   1.000  H  0.122185
  H31      1.0000 0.11990  0.18180  0.92410  Biso   1.000  H  0.122542
  H32      1.0000 0.24670  0.82670  0.10780  Biso   1.000  H  0.131549
  H33      1.0000 0.84920  0.59160  0.02680  Biso   1.000  H  0.109453
  H34      1.0000 0.59500  0.14680  0.71260  Biso   1.000  H  0.386618
  H35      1.0000 0.34540  0.47020  0.25000  Biso   1.000  H  0.157075
  H36      1.0000 0.65080  0.09160  0.52680  Biso   1.000  H  0.109764
  H37      1.0000 0.15460  0.97020  0.75000  Biso   1.000  H  0.156251
  H38      1.0000 0.49910  0.41610  0.36590  Biso   1.000  H  0.138400
  H39      1.0000 0.57080  0.36390  0.02700  Biso   1.000  H  0.082080
  H40      1.0000 0.57080  0.36390  0.47300  Biso   1.000  H  0.082079
  H41      1.0000 0.54820  0.02880  0.06550  Biso   1.000  H  0.104794
  H42      1.0000 0.59500  0.14680  0.78740  Biso   1.000  H  0.386620
  H43      1.0000 0.75330  0.17330  0.89220  Biso   1.000  H  0.130907
  H44      1.0000 0.95180  0.52880  0.93450  Biso   1.000  H  0.104954
  H45      1.0000 0.00090  0.91610  0.63410  Biso   1.000  H  0.137284
  H46      1.0000 0.88010  0.81820  0.07590  Biso   1.000  H  0.121974
  H47      1.0000 0.54820  0.02880  0.43450  Biso   1.000  H  0.104802
  H48      1.0000 0.92920  0.86390  0.97300  Biso   1.000  H  0.082359
  H49      1.0000 0.17410  0.09320  0.75000  Biso   1.000  H  0.156387
  H50      1.0000 0.61990  0.31820  0.57590  Biso   1.000  H  0.122225
  H51      1.0000 0.92920  0.86390  0.52700  Biso   1.000  H  0.082367
  H52      1.0000 0.84920  0.59160  0.47320  Biso   1.000  H  0.109453
  H53      1.0000 0.88010  0.81820  0.42410  Biso   1.000  H  0.121975
  H54      1.0000 0.00090  0.91610  0.86590  Biso   1.000  H  0.137283
  H55      1.0000 0.90500  0.64680  0.21260  Biso   1.000  H  0.386392
  H56      1.0000 0.65080  0.09160  0.97320  Biso   1.000  H  0.109762
  H57      1.0000 0.61990  0.31820  0.92410  Biso   1.000  H  0.122224
  H58      1.0000 0.75330  0.17330  0.60780  Biso   1.000  H  0.130906
  H59      1.0000 0.74670  0.67330  0.10780  Biso   1.000  H  0.131598
  H60      1.0000 0.90500  0.64680  0.28740  Biso   1.000  H  0.386391
  H61      1.0000 0.32590  0.59320  0.25000  Biso   1.000  H  0.157015
  H62      1.0000 0.49910  0.41610  0.13410  Biso   1.000  H  0.138398
  H63      1.0000 0.74670  0.67330  0.39220  Biso   1.000  H  0.131597
  H64      1.0000 0.95180  0.52880  0.56550  Biso   1.000  H  0.104955
  N1       1.0000 0.10360  0.86720  0.31580  Biso   1.000  N  -0.229163
  N2       1.0000 0.01890  0.95530  0.30680  Biso   1.000  N  0.142483
  N3       1.0000 0.10360  0.86720  0.18420  Biso   1.000  N  -0.229166
  N4       1.0000 0.01890  0.95530  0.19320  Biso   1.000  N  0.142481
  N5       1.0000 0.48110  0.45530  0.80680  Biso   1.000  N  0.142926
  N6       1.0000 0.48110  0.45530  0.69320  Biso   1.000  N  0.142929
  N7       1.0000 0.39640  0.36720  0.68420  Biso   1.000  N  -0.229647
  N8       1.0000 0.39640  0.36720  0.81580  Biso   1.000  N  -0.229651
  N9       1.0000 0.89640  0.13280  0.68420  Biso   1.000  N  -0.225365
  N10      1.0000 0.60360  0.63280  0.31580  Biso   1.000  N  -0.229181
  N11      1.0000 0.51890  0.54470  0.19320  Biso   1.000  N  0.142425
  N12      1.0000 0.98110  0.04470  0.69320  Biso   1.000  N  0.141704
  N13      1.0000 0.51890  0.54470  0.30680  Biso   1.000  N  0.142431
  N14      1.0000 0.98110  0.04470  0.80680  Biso   1.000  N  0.141697
  N15      1.0000 0.60360  0.63280  0.18420  Biso   1.000  N  -0.229182
  N16      1.0000 0.89640  0.13280  0.81580  Biso   1.000  N  -0.225364
  O1       1.0000 0.28720  0.17160  0.67990  Biso   1.000  O  -0.565870
  O2       1.0000 0.39950  0.80720  0.25000  Biso   1.000  O  -0.839050
  O3       1.0000 0.02220  0.60610  0.15030  Biso   1.000  O  -0.597265
  O4       1.0000 0.47780  0.10610  0.65030  Biso   1.000  O  -0.596591
  O5       1.0000 0.21280  0.67160  0.17990  Biso   1.000  O  -0.566544
  O6       1.0000 0.10050  0.30720  0.75000  Biso   1.000  O  -0.829074
  O7       1.0000 0.02220  0.60610  0.34970  Biso   1.000  O  -0.597259
  O8       1.0000 0.28720  0.17160  0.82010  Biso   1.000  O  -0.565868
  O9       1.0000 0.47780  0.10610  0.84970  Biso   1.000  O  -0.596590
  O10      1.0000 0.21280  0.67160  0.32010  Biso   1.000  O  -0.566544
  O11      1.0000 0.52220  0.89390  0.34970  Biso   1.000  O  -0.597514
  O12      1.0000 0.97780  0.39390  0.84970  Biso   1.000  O  -0.598518
  O13      1.0000 0.97780  0.39390  0.65030  Biso   1.000  O  -0.598521
  O14      1.0000 0.78720  0.32840  0.82010  Biso   1.000  O  -0.564803
  O15      1.0000 0.89950  0.69280  0.25000  Biso   1.000  O  -0.838984
  O16      1.0000 0.60050  0.19280  0.75000  Biso   1.000  O  -0.829109
  O17      1.0000 0.71280  0.82840  0.17990  Biso   1.000  O  -0.566551
  O18      1.0000 0.71280  0.82840  0.32010  Biso   1.000  O  -0.566553
  O19      1.0000 0.52220  0.89390  0.15030  Biso   1.000  O  -0.597523
  O20      1.0000 0.78720  0.32840  0.67990  Biso   1.000  O  -0.564803
