data_image0
_cell_length_a       10.3976
_cell_length_b       14.2349
_cell_length_c       17.49
_cell_angle_alpha    75.88
_cell_angle_beta     74.787
_cell_angle_gamma    84.955

_symmetry_space_group_name_H-M    "P 1"
_symmetry_int_tables_number       1

loop_
  _symmetry_equiv_pos_as_xyz
  'x, y, z'

loop_
  _atom_site_label
  _atom_site_occupancy
  _atom_site_fract_x
  _atom_site_fract_y
  _atom_site_fract_z
  _atom_site_thermal_displace_type
  _atom_site_B_iso_or_equiv
  _atom_site_type_symbol
  _atom_site_charge
  C1       1.0000 0.42860  0.14520  0.10720  Biso   1.000  C  0.682281
  C2       1.0000 0.57140  0.85480  0.89280  Biso   1.000  C  0.682281
  C3       1.0000 0.45910  0.15650  0.18410  Biso   1.000  C  -0.062030
  C4       1.0000 0.54090  0.84350  0.81590  Biso   1.000  C  -0.062030
  C5       1.0000 0.82350  0.01610  0.90230  Biso   1.000  C  0.635493
  C6       1.0000 0.17650  0.98390  0.09770  Biso   1.000  C  0.635493
  C7       1.0000 0.47830  0.16980  0.33770  Biso   1.000  C  -0.044147
  C8       1.0000 0.52170  0.83020  0.66230  Biso   1.000  C  -0.044147
  C9       1.0000 0.50280  0.25070  0.73240  Biso   1.000  C  -0.149174
  C10      1.0000 0.49720  0.74930  0.26760  Biso   1.000  C  -0.149174
  C11      1.0000 0.61780  0.29680  0.11880  Biso   1.000  C  0.595453
  C12      1.0000 0.38220  0.70320  0.88120  Biso   1.000  C  0.595452
  C13      1.0000 0.01310  0.14600  0.92070  Biso   1.000  C  0.654406
  C14      1.0000 0.98690  0.85400  0.07930  Biso   1.000  C  0.654406
  C15      1.0000 0.49750  0.17900  0.41750  Biso   1.000  C  0.686512
  C16      1.0000 0.50250  0.82100  0.58250  Biso   1.000  C  0.686512
  C17      1.0000 0.20940  0.34740  0.23150  Biso   1.000  C  -0.119891
  C18      1.0000 0.79060  0.65260  0.76850  Biso   1.000  C  -0.119891
  C19      1.0000 0.88190  0.10160  0.83460  Biso   1.000  C  -0.013385
  C20      1.0000 0.11810  0.89840  0.16540  Biso   1.000  C  -0.013385
  C21      1.0000 0.52200  0.32320  0.58350  Biso   1.000  C  0.675741
  C22      1.0000 0.47800  0.67680  0.41650  Biso   1.000  C  0.675741
  C23      1.0000 0.98330  0.15280  0.84120  Biso   1.000  C  -0.056496
  C24      1.0000 0.01670  0.84720  0.15880  Biso   1.000  C  -0.056496
  C25      1.0000 0.40580  0.08660  0.25420  Biso   1.000  C  -0.143165
  C26      1.0000 0.59420  0.91340  0.74580  Biso   1.000  C  -0.143165
  C27      1.0000 0.05620  0.21440  0.77220  Biso   1.000  C  -0.136800
  C28      1.0000 0.94380  0.78560  0.22780  Biso   1.000  C  -0.136800
  C29      1.0000 0.85930  0.21670  0.61760  Biso   1.000  C  0.626544
  C30      1.0000 0.14070  0.78330  0.38240  Biso   1.000  C  0.626544
  C31      1.0000 0.46140  0.18010  0.88080  Biso   1.000  C  0.662692
  C32      1.0000 0.53860  0.81990  0.11920  Biso   1.000  C  0.662692
  C33      1.0000 0.37460  0.00680  0.39880  Biso   1.000  C  0.617852
  C34      1.0000 0.62540  0.99320  0.60120  Biso   1.000  C  0.617852
  C35      1.0000 0.17540  0.35850  0.15700  Biso   1.000  C  -0.093652
  C36      1.0000 0.82460  0.64150  0.84300  Biso   1.000  C  -0.093652
  C37      1.0000 0.12590  0.29850  0.30420  Biso   1.000  C  -0.065448
  C38      1.0000 0.87410  0.70150  0.69580  Biso   1.000  C  -0.065448
  C39      1.0000 0.02090  0.32670  0.07990  Biso   1.000  C  0.653942
  C40      1.0000 0.97910  0.67330  0.92010  Biso   1.000  C  0.653942
  C41      1.0000 0.53420  0.23130  0.19040  Biso   1.000  C  -0.027655
  C42      1.0000 0.46580  0.76870  0.80960  Biso   1.000  C  -0.027655
  C43      1.0000 0.60640  0.32490  0.81030  Biso   1.000  C  -0.062806
  C44      1.0000 0.39360  0.67510  0.18970  Biso   1.000  C  -0.062806
  C45      1.0000 0.90740  0.21420  0.38210  Biso   1.000  C  0.659527
  C46      1.0000 0.09260  0.78580  0.61790  Biso   1.000  C  0.659527
  C47      1.0000 0.91050  0.18720  0.69540  Biso   1.000  C  -0.061976
  C48      1.0000 0.08950  0.81280  0.30460  Biso   1.000  C  -0.061976
  C49      1.0000 0.25960  0.41990  0.08220  Biso   1.000  C  0.680236
  C50      1.0000 0.74040  0.58010  0.91780  Biso   1.000  C  0.680236
  C51      1.0000 0.16470  0.28100  0.38200  Biso   1.000  C  0.628266
  C52      1.0000 0.83530  0.71900  0.61800  Biso   1.000  C  0.628266
  C53      1.0000 0.41700  0.09120  0.33070  Biso   1.000  C  -0.032273
  C54      1.0000 0.58300  0.90880  0.66930  Biso   1.000  C  -0.032273
  C55      1.0000 0.02220  0.23000  0.69910  Biso   1.000  C  -0.044451
  C56      1.0000 0.97780  0.77000  0.30090  Biso   1.000  C  -0.044451
  C57      1.0000 0.53720  0.23860  0.26650  Biso   1.000  C  -0.120003
  C58      1.0000 0.46280  0.76140  0.73350  Biso   1.000  C  -0.120003
  C59      1.0000 0.84260  0.11990  0.76260  Biso   1.000  C  -0.129920
  C60      1.0000 0.15740  0.88010  0.23740  Biso   1.000  C  -0.129920
  C61      1.0000 0.97500  0.27110  0.22910  Biso   1.000  C  -0.119485
  C62      1.0000 0.02500  0.72890  0.77090  Biso   1.000  C  -0.119485
  C63      1.0000 0.00730  0.26040  0.30260  Biso   1.000  C  -0.014368
  C64      1.0000 0.99270  0.73960  0.69740  Biso   1.000  C  -0.014368
  C65      1.0000 0.53060  0.25140  0.80420  Biso   1.000  C  -0.006893
  C66      1.0000 0.46940  0.74860  0.19580  Biso   1.000  C  -0.006893
  C67      1.0000 0.11200  0.29090  0.62590  Biso   1.000  C  0.633733
  C68      1.0000 0.88800  0.70910  0.37410  Biso   1.000  C  0.633733
  C69      1.0000 0.54620  0.32640  0.66470  Biso   1.000  C  -0.040584
  C70      1.0000 0.45380  0.67360  0.33530  Biso   1.000  C  -0.040584
  C71      1.0000 0.63360  0.40490  0.74660  Biso   1.000  C  -0.100588
  C72      1.0000 0.36640  0.59510  0.25340  Biso   1.000  C  -0.100588
  C73      1.0000 0.05800  0.31900  0.15770  Biso   1.000  C  -0.018462
  C74      1.0000 0.94200  0.68100  0.84230  Biso   1.000  C  -0.018462
  C75      1.0000 0.60360  0.40440  0.67330  Biso   1.000  C  -0.041040
  C76      1.0000 0.39640  0.59560  0.32670  Biso   1.000  C  -0.041040
  C77      1.0000 0.65440  0.31420  0.88440  Biso   1.000  C  0.671855
  C78      1.0000 0.34560  0.68580  0.11560  Biso   1.000  C  0.671855
  C79      1.0000 0.62510  0.49550  0.60590  Biso   1.000  C  0.606466
  C80      1.0000 0.37490  0.50450  0.39410  Biso   1.000  C  0.606466
  H1       1.0000 0.40990  0.46680  0.06890  Biso   1.000  H  0.444949
  H2       1.0000 0.59010  0.53320  0.93110  Biso   1.000  H  0.444949
  H3       1.0000 0.45530  0.20030  0.72860  Biso   1.000  H  0.127094
  H4       1.0000 0.54470  0.79970  0.27140  Biso   1.000  H  0.127094
  H5       1.0000 0.28820  0.37280  0.23240  Biso   1.000  H  0.130173
  H6       1.0000 0.71180  0.62720  0.76760  Biso   1.000  H  0.130173
  H7       1.0000 0.36120  0.03520  0.24960  Biso   1.000  H  0.127681
  H8       1.0000 0.63880  0.96480  0.75040  Biso   1.000  H  0.127681
  H9       1.0000 0.12890  0.24570  0.77540  Biso   1.000  H  0.128835
  H10      1.0000 0.87110  0.75430  0.22460  Biso   1.000  H  0.128835
  H11      1.0000 0.57970  0.29080  0.27150  Biso   1.000  H  0.140884
  H12      1.0000 0.42030  0.70920  0.72850  Biso   1.000  H  0.140884
  H13      1.0000 0.77130  0.08740  0.75910  Biso   1.000  H  0.130081
  H14      1.0000 0.22870  0.91260  0.24090  Biso   1.000  H  0.130081
  H15      1.0000 0.89640  0.24560  0.22790  Biso   1.000  H  0.142252
  H16      1.0000 0.10360  0.75440  0.77210  Biso   1.000  H  0.142252
  H17      1.0000 0.67160  0.45880  0.75220  Biso   1.000  H  0.127004
  H18      1.0000 0.32840  0.54120  0.24780  Biso   1.000  H  0.127004
  H19      1.0000 0.67110  0.01860  0.14350  Biso   1.000  H  0.430428
  H20      1.0000 0.32890  0.98140  0.85650  Biso   1.000  H  0.430428
  H21      1.0000 0.78660  0.98470  0.10800  Biso   1.000  H  0.433866
  H22      1.0000 0.21340  0.01530  0.89200  Biso   1.000  H  0.433866
  H23      1.0000 0.02300  0.42940  0.39480  Biso   1.000  H  0.454876
  H24      1.0000 0.97700  0.57060  0.60520  Biso   1.000  H  0.454876
  H25      1.0000 0.01530  0.45610  0.46660  Biso   1.000  H  0.464995
  H26      1.0000 0.98470  0.54390  0.53340  Biso   1.000  H  0.464995
  H27      1.0000 0.79540  0.48650  0.35850  Biso   1.000  H  0.440296
  H28      1.0000 0.20460  0.51350  0.64150  Biso   1.000  H  0.440296
  H29      1.0000 0.68570  0.50940  0.40140  Biso   1.000  H  0.439428
  H30      1.0000 0.31430  0.49060  0.59860  Biso   1.000  H  0.439428
  H31      1.0000 0.05760  0.00700  0.61620  Biso   1.000  H  0.462494
  H32      1.0000 0.94240  0.99300  0.38380  Biso   1.000  H  0.462494
  H33      1.0000 0.98200  0.09010  0.59440  Biso   1.000  H  0.428042
  H34      1.0000 0.01800  0.90990  0.40560  Biso   1.000  H  0.428042
  H35      1.0000 0.26670  0.09340  0.64490  Biso   1.000  H  0.421297
  H36      1.0000 0.73330  0.90660  0.35510  Biso   1.000  H  0.421297
  H37      1.0000 0.37380  0.06290  0.60670  Biso   1.000  H  0.434572
  H38      1.0000 0.62620  0.93710  0.39330  Biso   1.000  H  0.434572
  H39      1.0000 0.98390  0.41860  0.88760  Biso   1.000  H  0.455911
  H40      1.0000 0.01610  0.58140  0.11240  Biso   1.000  H  0.455911
  H41      1.0000 0.02290  0.33690  0.92880  Biso   1.000  H  0.448662
  H42      1.0000 0.97710  0.66310  0.07120  Biso   1.000  H  0.448662
  H43      1.0000 0.50710  0.43730  0.96630  Biso   1.000  H  0.393893
  H44      1.0000 0.49290  0.56270  0.03370  Biso   1.000  H  0.393893
  H45      1.0000 0.41240  0.50600  0.97840  Biso   1.000  H  0.389830
  H46      1.0000 0.58760  0.49400  0.02160  Biso   1.000  H  0.389830
  H47      1.0000 0.28520  0.39490  0.91830  Biso   1.000  H  0.442053
  H48      1.0000 0.71480  0.60510  0.08170  Biso   1.000  H  0.442053
  H49      1.0000 0.43280  0.41460  0.89320  Biso   1.000  H  0.473669
  H50      1.0000 0.56720  0.58540  0.10680  Biso   1.000  H  0.473669
  Mg1      1.0000 0.50000  0.00000  0.00000  Biso   1.000  Mg  1.420418
  Mg2      1.0000 0.31530  0.34170  0.48597  Biso   1.000  Mg  1.369398
  Mg3      1.0000 0.68470  0.65830  0.51403  Biso   1.000  Mg  1.369398
  Mg4      1.0000 0.71860  0.13730  0.01847  Biso   1.000  Mg  1.404673
  Mg5      1.0000 0.28140  0.86270  0.98153  Biso   1.000  Mg  1.404673
  Mg6      1.0000 0.21080  0.17250  0.01288  Biso   1.000  Mg  1.368531
  Mg7      1.0000 0.78920  0.82750  0.98712  Biso   1.000  Mg  1.368531
  Mg8      1.0000 0.70870  0.16530  0.51095  Biso   1.000  Mg  1.375977
  Mg9      1.0000 0.29130  0.83470  0.48905  Biso   1.000  Mg  1.375977
  Mg10     1.0000 0.80460  0.38240  0.48300  Biso   1.000  Mg  1.389004
  Mg11     1.0000 0.19540  0.61760  0.51700  Biso   1.000  Mg  1.389004
  Mg12     1.0000 0.21170  0.12650  0.52235  Biso   1.000  Mg  1.390158
  Mg13     1.0000 0.78830  0.87350  0.47765  Biso   1.000  Mg  1.390158
  Mg14     1.0000 0.79900  0.38020  0.99150  Biso   1.000  Mg  1.361693
  Mg15     1.0000 0.20100  0.61980  0.00850  Biso   1.000  Mg  1.361692
  O1       1.0000 0.51980  0.10650  0.05770  Biso   1.000  O  -0.755808
  O2       1.0000 0.48020  0.89350  0.94230  Biso   1.000  O  -0.755808
  O3       1.0000 0.71510  0.02340  0.95800  Biso   1.000  O  -0.766967
  O4       1.0000 0.28490  0.97660  0.04200  Biso   1.000  O  -0.766967
  O5       1.0000 0.48590  0.09310  0.89110  Biso   1.000  O  -0.665077
  O6       1.0000 0.51410  0.90690  0.10890  Biso   1.000  O  -0.665077
  O7       1.0000 0.39580  0.20100  0.47010  Biso   1.000  O  -0.765819
  O8       1.0000 0.60420  0.79900  0.52990  Biso   1.000  O  -0.765819
  O9       1.0000 0.17380  0.25080  0.56890  Biso   1.000  O  -0.774242
  O10      1.0000 0.82620  0.74920  0.43110  Biso   1.000  O  -0.774242
  O11      1.0000 0.72010  0.49440  0.54120  Biso   1.000  O  -0.731184
  O12      1.0000 0.27990  0.50560  0.45880  Biso   1.000  O  -0.731184
  O13      1.0000 0.21520  0.34750  0.39800  Biso   1.000  O  -0.668153
  O14      1.0000 0.78480  0.65250  0.60200  Biso   1.000  O  -0.668153
  O15      1.0000 0.40990  0.34430  0.57320  Biso   1.000  O  -0.605975
  O16      1.0000 0.59010  0.65570  0.42680  Biso   1.000  O  -0.605975
  O17      1.0000 0.55400  0.56970  0.61260  Biso   1.000  O  -0.546620
  O18      1.0000 0.44600  0.43030  0.38740  Biso   1.000  O  -0.546620
  O19      1.0000 0.67880  0.23000  0.91960  Biso   1.000  O  -0.674450
  O20      1.0000 0.32120  0.77000  0.08040  Biso   1.000  O  -0.674450
  O21      1.0000 0.69790  0.25610  0.06510  Biso   1.000  O  -0.778579
  O22      1.0000 0.30210  0.74390  0.93490  Biso   1.000  O  -0.778579
  O23      1.0000 0.91950  0.13600  0.98300  Biso   1.000  O  -0.643701
  O24      1.0000 0.08050  0.86400  0.01700  Biso   1.000  O  -0.643701
  O25      1.0000 0.31570  0.16870  0.09930  Biso   1.000  O  -0.585452
  O26      1.0000 0.68430  0.83130  0.90070  Biso   1.000  O  -0.585452
  O27      1.0000 0.13080  0.14720  0.92370  Biso   1.000  O  -0.659391
  O28      1.0000 0.86920  0.85280  0.07630  Biso   1.000  O  -0.659392
  O29      1.0000 0.37240  0.22230  0.92600  Biso   1.000  O  -0.671861
  O30      1.0000 0.62760  0.77770  0.07400  Biso   1.000  O  -0.671861
  O31      1.0000 0.10370  0.29160  0.02430  Biso   1.000  O  -0.682411
  O32      1.0000 0.89630  0.70840  0.97570  Biso   1.000  O  -0.682411
  O33      1.0000 0.88760  0.93890  0.90000  Biso   1.000  O  -0.559368
  O34      1.0000 0.11240  0.06110  0.10000  Biso   1.000  O  -0.559368
  O35      1.0000 0.85200  0.26520  0.42780  Biso   1.000  O  -0.737494
  O36      1.0000 0.14800  0.73480  0.57220  Biso   1.000  O  -0.737494
  O37      1.0000 0.62170  0.30130  0.52990  Biso   1.000  O  -0.727386
  O38      1.0000 0.37830  0.69870  0.47010  Biso   1.000  O  -0.727386
  O39      1.0000 0.81170  0.15400  0.59730  Biso   1.000  O  -0.623315
  O40      1.0000 0.18830  0.84600  0.40270  Biso   1.000  O  -0.623315
  O41      1.0000 0.61030  0.16630  0.42610  Biso   1.000  O  -0.574436
  O42      1.0000 0.38970  0.83370  0.57390  Biso   1.000  O  -0.574436
  O43      1.0000 0.42830  0.92560  0.39190  Biso   1.000  O  -0.636833
  O44      1.0000 0.57170  0.07440  0.60810  Biso   1.000  O  -0.636833
  O45      1.0000 0.28930  0.01600  0.46270  Biso   1.000  O  -0.635566
  O46      1.0000 0.71070  0.98400  0.53730  Biso   1.000  O  -0.635566
  O47      1.0000 0.86940  0.30530  0.58150  Biso   1.000  O  -0.668468
  O48      1.0000 0.13060  0.69470  0.41850  Biso   1.000  O  -0.668468
  O49      1.0000 0.87580  0.13110  0.39730  Biso   1.000  O  -0.558776
  O50      1.0000 0.12420  0.86890  0.60270  Biso   1.000  O  -0.558776
  O51      1.0000 0.12800  0.37630  0.62410  Biso   1.000  O  -0.564703
  O52      1.0000 0.87200  0.62370  0.37590  Biso   1.000  O  -0.564703
  O53      1.0000 0.14420  0.19860  0.42710  Biso   1.000  O  -0.634925
  O54      1.0000 0.85580  0.80140  0.57290  Biso   1.000  O  -0.634925
  O55      1.0000 0.91080  0.36570  0.07250  Biso   1.000  O  -0.611581
  O56      1.0000 0.08920  0.63430  0.92750  Biso   1.000  O  -0.611581
  O57      1.0000 0.19780  0.47940  0.03870  Biso   1.000  O  -0.628319
  O58      1.0000 0.80220  0.52060  0.96130  Biso   1.000  O  -0.628319
  O59      1.0000 0.62140  0.38270  0.11250  Biso   1.000  O  -0.464310
  O60      1.0000 0.37860  0.61730  0.88750  Biso   1.000  O  -0.464310
  O61      1.0000 0.66900  0.38430  0.90970  Biso   1.000  O  -0.658015
  O62      1.0000 0.33100  0.61570  0.09030  Biso   1.000  O  -0.658015
  O63      1.0000 0.38200  0.41480  0.06880  Biso   1.000  O  -0.527871
  O64      1.0000 0.61800  0.58520  0.93120  Biso   1.000  O  -0.527871
  O65      1.0000 0.75060  0.03690  0.12140  Biso   1.000  O  -0.834304
  O66      1.0000 0.24940  0.96310  0.87860  Biso   1.000  O  -0.834304
  O67      1.0000 0.97340  0.45640  0.43080  Biso   1.000  O  -0.860984
  O68      1.0000 0.02660  0.54360  0.56920  Biso   1.000  O  -0.860984
  O69      1.0000 0.72330  0.45890  0.38680  Biso   1.000  O  -0.829282
  O70      1.0000 0.27670  0.54110  0.61320  Biso   1.000  O  -0.829282
  O71      1.0000 0.04450  0.05220  0.57690  Biso   1.000  O  -0.859794
  O72      1.0000 0.95550  0.94780  0.42310  Biso   1.000  O  -0.859794
  O73      1.0000 0.29150  0.05020  0.61760  Biso   1.000  O  -0.818177
  O74      1.0000 0.70850  0.94980  0.38240  Biso   1.000  O  -0.818177
  O75      1.0000 0.95990  0.36020  0.90680  Biso   1.000  O  -0.853368
  O76      1.0000 0.04010  0.63980  0.09320  Biso   1.000  O  -0.853368
  O77      1.0000 0.47430  0.48840  0.94070  Biso   1.000  O  -0.795138
  O78      1.0000 0.52570  0.51160  0.05930  Biso   1.000  O  -0.795138
  O79      1.0000 0.35500  0.42390  0.88950  Biso   1.000  O  -0.911111
  O80      1.0000 0.64500  0.57610  0.11050  Biso   1.000  O  -0.911111
