data_image0
_cell_length_a       8.497
_cell_length_b       10.296
_cell_length_c       17.749
_cell_angle_alpha    90
_cell_angle_beta     104.624
_cell_angle_gamma    90

_symmetry_space_group_name_H-M    "P 1"
_symmetry_int_tables_number       1

loop_
  _symmetry_equiv_pos_as_xyz
  'x, y, z'

loop_
  _atom_site_label
  _atom_site_occupancy
  _atom_site_fract_x
  _atom_site_fract_y
  _atom_site_fract_z
  _atom_site_thermal_displace_type
  _atom_site_B_iso_or_equiv
  _atom_site_type_symbol
  _atom_site_charge
  C1       1.0000 0.84660  0.49400  0.58708  Biso   1.000  C  0.281538
  C2       1.0000 0.15340  0.99400  0.91292  Biso   1.000  C  0.281528
  C3       1.0000 0.15340  0.50600  0.41292  Biso   1.000  C  0.281525
  C4       1.0000 0.84660  0.00600  0.08708  Biso   1.000  C  0.281539
  C5       1.0000 0.91660  0.48590  0.66684  Biso   1.000  C  -0.189545
  C6       1.0000 0.08340  0.98590  0.83316  Biso   1.000  C  -0.189560
  C7       1.0000 0.08340  0.51410  0.33316  Biso   1.000  C  -0.189550
  C8       1.0000 0.91660  0.01410  0.16684  Biso   1.000  C  -0.189533
  C9       1.0000 0.02510  0.38660  0.69760  Biso   1.000  C  -0.003369
  C10      1.0000 0.97490  0.88660  0.80240  Biso   1.000  C  -0.003365
  C11      1.0000 0.97490  0.61340  0.30240  Biso   1.000  C  -0.003360
  C12      1.0000 0.02510  0.11340  0.19760  Biso   1.000  C  -0.003362
  C13      1.0000 0.06520  0.29420  0.64858  Biso   1.000  C  -0.129477
  C14      1.0000 0.93480  0.79420  0.85142  Biso   1.000  C  -0.129490
  C15      1.0000 0.93480  0.70580  0.35142  Biso   1.000  C  -0.129490
  C16      1.0000 0.06520  0.20580  0.14858  Biso   1.000  C  -0.129468
  C17      1.0000 0.99560  0.30330  0.56881  Biso   1.000  C  -0.014958
  C18      1.0000 0.00440  0.80330  0.93119  Biso   1.000  C  -0.014950
  C19      1.0000 0.00440  0.69670  0.43119  Biso   1.000  C  -0.014963
  C20      1.0000 0.99560  0.19670  0.06881  Biso   1.000  C  -0.014968
  C21      1.0000 0.88710  0.40200  0.53730  Biso   1.000  C  -0.200966
  C22      1.0000 0.11290  0.90200  0.96270  Biso   1.000  C  -0.200981
  C23      1.0000 0.11290  0.59800  0.46270  Biso   1.000  C  -0.200985
  C24      1.0000 0.88710  0.09800  0.03730  Biso   1.000  C  -0.200967
  C25      1.0000 0.63250  0.61070  0.49066  Biso   1.000  C  0.482886
  C26      1.0000 0.36750  0.11070  0.00934  Biso   1.000  C  0.482880
  C27      1.0000 0.36750  0.38930  0.50934  Biso   1.000  C  0.482879
  C28      1.0000 0.63250  0.88930  0.99066  Biso   1.000  C  0.482885
  C29      1.0000 0.35960  0.88660  0.52507  Biso   1.000  C  0.098849
  C30      1.0000 0.64040  0.38660  0.97493  Biso   1.000  C  0.098831
  C31      1.0000 0.64040  0.11340  0.47493  Biso   1.000  C  0.098844
  C32      1.0000 0.35960  0.61340  0.02507  Biso   1.000  C  0.098852
  C33      1.0000 0.47490  0.78850  0.54180  Biso   1.000  C  -0.149507
  C34      1.0000 0.52510  0.28850  0.95820  Biso   1.000  C  -0.149528
  C35      1.0000 0.52510  0.21150  0.45820  Biso   1.000  C  -0.149514
  C36      1.0000 0.47490  0.71150  0.04180  Biso   1.000  C  -0.149495
  C37      1.0000 0.51890  0.72610  0.48153  Biso   1.000  C  0.025070
  C38      1.0000 0.48110  0.22610  0.01847  Biso   1.000  C  0.025055
  C39      1.0000 0.48110  0.27390  0.51847  Biso   1.000  C  0.025066
  C40      1.0000 0.51890  0.77390  0.98153  Biso   1.000  C  0.025079
  C41      1.0000 0.44410  0.76440  0.40620  Biso   1.000  C  -0.136310
  C42      1.0000 0.55590  0.26440  0.09380  Biso   1.000  C  -0.136320
  C43      1.0000 0.55590  0.23560  0.59380  Biso   1.000  C  -0.136322
  C44      1.0000 0.44410  0.73560  0.90620  Biso   1.000  C  -0.136301
  C45      1.0000 0.33030  0.86150  0.39409  Biso   1.000  C  0.087662
  C46      1.0000 0.66970  0.36150  0.10591  Biso   1.000  C  0.087660
  C47      1.0000 0.66970  0.13850  0.60591  Biso   1.000  C  0.087659
  C48      1.0000 0.33030  0.63850  0.89409  Biso   1.000  C  0.087654
  C49      1.0000 0.09590  0.37930  0.78427  Biso   1.000  C  0.579920
  C50      1.0000 0.90410  0.87930  0.71573  Biso   1.000  C  0.579921
  C51      1.0000 0.90410  0.62070  0.21573  Biso   1.000  C  0.579928
  C52      1.0000 0.09590  0.12070  0.28427  Biso   1.000  C  0.579918
  C53      1.0000 0.03550  0.20520  0.51571  Biso   1.000  C  0.529620
  C54      1.0000 0.96450  0.70520  0.98429  Biso   1.000  C  0.529623
  C55      1.0000 0.96450  0.79480  0.48429  Biso   1.000  C  0.529624
  C56      1.0000 0.03550  0.29480  0.01571  Biso   1.000  C  0.529620
  Cu1      1.0000 0.11185  0.44452  0.93216  Biso   1.000  Cu  0.770245
  Cu2      1.0000 0.88815  0.94452  0.56784  Biso   1.000  Cu  0.770221
  Cu3      1.0000 0.88815  0.55548  0.06784  Biso   1.000  Cu  0.770160
  Cu4      1.0000 0.11185  0.05548  0.43216  Biso   1.000  Cu  0.770240
  H1       1.0000 0.73850  0.65900  0.59420  Biso   1.000  H  0.302518
  H2       1.0000 0.26150  0.15900  0.90580  Biso   1.000  H  0.302512
  H3       1.0000 0.26150  0.34100  0.40580  Biso   1.000  H  0.302515
  H4       1.0000 0.73850  0.84100  0.09420  Biso   1.000  H  0.302519
  H5       1.0000 0.89050  0.54760  0.70000  Biso   1.000  H  0.143050
  H6       1.0000 0.10950  0.04760  0.80000  Biso   1.000  H  0.143039
  H7       1.0000 0.10950  0.45240  0.30000  Biso   1.000  H  0.143046
  H8       1.0000 0.89050  0.95240  0.20000  Biso   1.000  H  0.143044
  H9       1.0000 0.13730  0.22740  0.66870  Biso   1.000  H  0.132652
  H10      1.0000 0.86270  0.72740  0.83130  Biso   1.000  H  0.132646
  H11      1.0000 0.86270  0.77260  0.33130  Biso   1.000  H  0.132647
  H12      1.0000 0.13730  0.27260  0.16870  Biso   1.000  H  0.132652
  H13      1.0000 0.84210  0.40660  0.48390  Biso   1.000  H  0.137626
  H14      1.0000 0.15790  0.90660  0.01610  Biso   1.000  H  0.137623
  H15      1.0000 0.15790  0.59340  0.51610  Biso   1.000  H  0.137621
  H16      1.0000 0.84210  0.09340  0.98390  Biso   1.000  H  0.137624
  H17      1.0000 0.33140  0.92880  0.56610  Biso   1.000  H  0.111656
  H18      1.0000 0.66860  0.42880  0.93390  Biso   1.000  H  0.111664
  H19      1.0000 0.66860  0.07120  0.43390  Biso   1.000  H  0.111658
  H20      1.0000 0.33140  0.57120  0.06610  Biso   1.000  H  0.111672
  H21      1.0000 0.52200  0.76510  0.59310  Biso   1.000  H  0.143111
  H22      1.0000 0.47800  0.26510  0.90690  Biso   1.000  H  0.143109
  H23      1.0000 0.47800  0.23490  0.40690  Biso   1.000  H  0.143111
  H24      1.0000 0.52200  0.73490  0.09310  Biso   1.000  H  0.143117
  H25      1.0000 0.47110  0.72450  0.36410  Biso   1.000  H  0.142900
  H26      1.0000 0.52890  0.22450  0.13590  Biso   1.000  H  0.142885
  H27      1.0000 0.52890  0.27550  0.63590  Biso   1.000  H  0.142898
  H28      1.0000 0.47110  0.77550  0.86410  Biso   1.000  H  0.142888
  H29      1.0000 0.28040  0.88580  0.34320  Biso   1.000  H  0.106716
  H30      1.0000 0.71960  0.38580  0.15680  Biso   1.000  H  0.106712
  H31      1.0000 0.71960  0.11420  0.65680  Biso   1.000  H  0.106712
  H32      1.0000 0.28040  0.61420  0.84320  Biso   1.000  H  0.106719
  N1       1.0000 0.73790  0.59750  0.56136  Biso   1.000  N  -0.418458
  N2       1.0000 0.26210  0.09750  0.93864  Biso   1.000  N  -0.418461
  N3       1.0000 0.26210  0.40250  0.43864  Biso   1.000  N  -0.418460
  N4       1.0000 0.73790  0.90250  0.06136  Biso   1.000  N  -0.418448
  N5       1.0000 0.28780  0.92290  0.45262  Biso   1.000  N  -0.244607
  N6       1.0000 0.71220  0.42290  0.04738  Biso   1.000  N  -0.244620
  N7       1.0000 0.71220  0.07710  0.54738  Biso   1.000  N  -0.244614
  N8       1.0000 0.28780  0.57710  0.95262  Biso   1.000  N  -0.244590
  O1       1.0000 0.62300  0.53740  0.43638  Biso   1.000  O  -0.462042
  O2       1.0000 0.37700  0.03740  0.06362  Biso   1.000  O  -0.462049
  O3       1.0000 0.37700  0.46260  0.56362  Biso   1.000  O  -0.462051
  O4       1.0000 0.62300  0.96260  0.93638  Biso   1.000  O  -0.462051
  O5       1.0000 0.04390  0.46603  0.82341  Biso   1.000  O  -0.532540
  O6       1.0000 0.95610  0.96603  0.67659  Biso   1.000  O  -0.532617
  O7       1.0000 0.95610  0.53397  0.17659  Biso   1.000  O  -0.532653
  O8       1.0000 0.04390  0.03397  0.32341  Biso   1.000  O  -0.532581
  O9       1.0000 0.19620  0.29540  0.81257  Biso   1.000  O  -0.568744
  O10      1.0000 0.80380  0.79540  0.68743  Biso   1.000  O  -0.568786
  O11      1.0000 0.80380  0.70460  0.18743  Biso   1.000  O  -0.568794
  O12      1.0000 0.19620  0.20460  0.31257  Biso   1.000  O  -0.568767
  O13      1.0000 0.12800  0.10990  0.54192  Biso   1.000  O  -0.546624
  O14      1.0000 0.87200  0.60990  0.95808  Biso   1.000  O  -0.546719
  O15      1.0000 0.87200  0.89010  0.45808  Biso   1.000  O  -0.546665
  O16      1.0000 0.12800  0.39010  0.04192  Biso   1.000  O  -0.546572
  O17      1.0000 0.97710  0.21097  0.44327  Biso   1.000  O  -0.478657
  O18      1.0000 0.02290  0.71097  0.05673  Biso   1.000  O  -0.478744
  O19      1.0000 0.02290  0.78903  0.55673  Biso   1.000  O  -0.478699
  O20      1.0000 0.97710  0.28903  0.94327  Biso   1.000  O  -0.478623
