data_image0
_cell_length_a       22.251
_cell_length_b       37.791
_cell_length_c       8.239
_cell_angle_alpha    90
_cell_angle_beta     90
_cell_angle_gamma    90

_symmetry_space_group_name_H-M    "P 1"
_symmetry_int_tables_number       1

loop_
  _symmetry_equiv_pos_as_xyz
  'x, y, z'

loop_
  _atom_site_label
  _atom_site_occupancy
  _atom_site_fract_x
  _atom_site_fract_y
  _atom_site_fract_z
  _atom_site_thermal_displace_type
  _atom_site_B_iso_or_equiv
  _atom_site_type_symbol
  _atom_site_charge
  C1       1.0000 0.25110  0.53170  0.95070  Biso   1.000  C  -0.007504
  C2       1.0000 0.23960  0.53210  0.12090  Biso   1.000  C  -0.014307
  C3       1.0000 0.26460  0.56530  0.85800  Biso   1.000  C  0.633969
  C4       1.0000 0.22720  0.56560  0.21070  Biso   1.000  C  0.635380
  C5       1.0000 0.05520  0.62870  0.58670  Biso   1.000  C  -0.012803
  C6       1.0000 0.05530  0.63790  0.75220  Biso   1.000  C  0.015045
  C7       1.0000 0.11120  0.64750  0.84200  Biso   1.000  C  0.574185
  C8       1.0000 0.11190  0.62250  0.49340  Biso   1.000  C  0.642435
  C9       1.0000 0.44570  0.73170  0.80390  Biso   1.000  C  -0.023560
  C10      1.0000 0.44570  0.76760  0.75110  Biso   1.000  C  0.018034
  C11      1.0000 0.38730  0.71210  0.82500  Biso   1.000  C  0.605825
  C12      1.0000 0.38780  0.78860  0.72900  Biso   1.000  C  0.585344
  C13      1.0000 0.44510  0.63110  0.31530  Biso   1.000  C  0.009951
  C14      1.0000 0.38920  0.64060  0.22230  Biso   1.000  C  0.577009
  C15      1.0000 0.38740  0.61710  0.57380  Biso   1.000  C  0.639696
  C16      1.0000 0.44490  0.62260  0.48150  Biso   1.000  C  -0.021111
  C17      1.0000 0.74890  0.46830  0.95070  Biso   1.000  C  -0.007488
  C18      1.0000 0.76040  0.46790  0.12090  Biso   1.000  C  -0.014287
  C19      1.0000 0.73540  0.43470  0.85800  Biso   1.000  C  0.633962
  C20      1.0000 0.77280  0.43440  0.21070  Biso   1.000  C  0.635365
  C21      1.0000 0.94480  0.37130  0.58670  Biso   1.000  C  -0.012794
  C22      1.0000 0.94470  0.36210  0.75220  Biso   1.000  C  0.015059
  C23      1.0000 0.88880  0.35250  0.84200  Biso   1.000  C  0.574208
  C24      1.0000 0.88810  0.37750  0.49340  Biso   1.000  C  0.642381
  C25      1.0000 0.55430  0.26830  0.80390  Biso   1.000  C  -0.023538
  C26      1.0000 0.55430  0.23240  0.75110  Biso   1.000  C  0.018026
  C27      1.0000 0.61270  0.28790  0.82500  Biso   1.000  C  0.605800
  C28      1.0000 0.61220  0.21140  0.72900  Biso   1.000  C  0.585293
  C29      1.0000 0.55490  0.36890  0.31530  Biso   1.000  C  0.009956
  C30      1.0000 0.61080  0.35940  0.22230  Biso   1.000  C  0.576973
  C31      1.0000 0.61260  0.38290  0.57380  Biso   1.000  C  0.639695
  C32      1.0000 0.55510  0.37740  0.48150  Biso   1.000  C  -0.021123
  C33      1.0000 0.24890  0.03170  0.04930  Biso   1.000  C  -0.007338
  C34      1.0000 0.26040  0.03210  0.87910  Biso   1.000  C  -0.014167
  C35      1.0000 0.23540  0.06530  0.14200  Biso   1.000  C  0.633819
  C36      1.0000 0.27280  0.06560  0.78930  Biso   1.000  C  0.635271
  C37      1.0000 0.44480  0.12870  0.41330  Biso   1.000  C  -0.012810
  C38      1.0000 0.44470  0.13790  0.24780  Biso   1.000  C  0.015043
  C39      1.0000 0.38880  0.14750  0.15800  Biso   1.000  C  0.573976
  C40      1.0000 0.38810  0.12250  0.50660  Biso   1.000  C  0.642369
  C41      1.0000 0.05430  0.23170  0.19610  Biso   1.000  C  -0.018084
  C42      1.0000 0.05430  0.26760  0.24890  Biso   1.000  C  0.017276
  C43      1.0000 0.11270  0.21210  0.17500  Biso   1.000  C  0.607395
  C44      1.0000 0.11220  0.28860  0.27100  Biso   1.000  C  0.587068
  C45      1.0000 0.05490  0.13110  0.68470  Biso   1.000  C  0.009968
  C46      1.0000 0.11080  0.14060  0.77770  Biso   1.000  C  0.576721
  C47      1.0000 0.11260  0.11710  0.42620  Biso   1.000  C  0.639721
  C48      1.0000 0.05510  0.12260  0.51850  Biso   1.000  C  -0.020662
  C49      1.0000 0.75110  0.96830  0.04930  Biso   1.000  C  -0.007463
  C50      1.0000 0.73960  0.96790  0.87910  Biso   1.000  C  -0.014251
  C51      1.0000 0.76460  0.93470  0.14200  Biso   1.000  C  0.633959
  C52      1.0000 0.72720  0.93440  0.78930  Biso   1.000  C  0.635362
  C53      1.0000 0.55520  0.87130  0.41330  Biso   1.000  C  -0.012805
  C54      1.0000 0.55530  0.86210  0.24780  Biso   1.000  C  0.015044
  C55      1.0000 0.61120  0.85250  0.15800  Biso   1.000  C  0.574187
  C56      1.0000 0.61190  0.87750  0.50660  Biso   1.000  C  0.642437
  C57      1.0000 0.94570  0.76830  0.19610  Biso   1.000  C  -0.023561
  C58      1.0000 0.94570  0.73240  0.24890  Biso   1.000  C  0.018034
  C59      1.0000 0.88730  0.78790  0.17500  Biso   1.000  C  0.605825
  C60      1.0000 0.88780  0.71140  0.27100  Biso   1.000  C  0.585344
  C61      1.0000 0.94510  0.86890  0.68470  Biso   1.000  C  0.009957
  C62      1.0000 0.88920  0.85940  0.77770  Biso   1.000  C  0.577007
  C63      1.0000 0.88740  0.88290  0.42620  Biso   1.000  C  0.639701
  C64      1.0000 0.94490  0.87740  0.51850  Biso   1.000  C  -0.021103
  C65      1.0000 0.24890  0.96830  0.04930  Biso   1.000  C  -0.007432
  C66      1.0000 0.26040  0.96790  0.87910  Biso   1.000  C  -0.014207
  C67      1.0000 0.23540  0.93470  0.14200  Biso   1.000  C  0.633951
  C68      1.0000 0.27280  0.93440  0.78930  Biso   1.000  C  0.635350
  C69      1.0000 0.44480  0.87130  0.41330  Biso   1.000  C  -0.012807
  C70      1.0000 0.44470  0.86210  0.24780  Biso   1.000  C  0.015043
  C71      1.0000 0.38880  0.85250  0.15800  Biso   1.000  C  0.574189
  C72      1.0000 0.38810  0.87750  0.50660  Biso   1.000  C  0.642439
  C73      1.0000 0.05430  0.76830  0.19610  Biso   1.000  C  -0.023561
  C74      1.0000 0.05430  0.73240  0.24890  Biso   1.000  C  0.018034
  C75      1.0000 0.11270  0.78790  0.17500  Biso   1.000  C  0.605825
  C76      1.0000 0.11220  0.71140  0.27100  Biso   1.000  C  0.585344
  C77      1.0000 0.05490  0.86890  0.68470  Biso   1.000  C  0.009956
  C78      1.0000 0.11080  0.85940  0.77770  Biso   1.000  C  0.577009
  C79      1.0000 0.11260  0.88290  0.42620  Biso   1.000  C  0.639704
  C80      1.0000 0.05510  0.87740  0.51850  Biso   1.000  C  -0.021104
  C81      1.0000 0.75110  0.03170  0.04930  Biso   1.000  C  -0.007412
  C82      1.0000 0.73960  0.03210  0.87910  Biso   1.000  C  -0.014217
  C83      1.0000 0.76460  0.06530  0.14200  Biso   1.000  C  0.633893
  C84      1.0000 0.72720  0.06560  0.78930  Biso   1.000  C  0.635321
  C85      1.0000 0.55520  0.12870  0.41330  Biso   1.000  C  -0.012798
  C86      1.0000 0.55530  0.13790  0.24780  Biso   1.000  C  0.015025
  C87      1.0000 0.61120  0.14750  0.15800  Biso   1.000  C  0.574113
  C88      1.0000 0.61190  0.12250  0.50660  Biso   1.000  C  0.642410
  C89      1.0000 0.94570  0.23170  0.19610  Biso   1.000  C  -0.021323
  C90      1.0000 0.94570  0.26760  0.24890  Biso   1.000  C  0.017638
  C91      1.0000 0.88730  0.21210  0.17500  Biso   1.000  C  0.606607
  C92      1.0000 0.88780  0.28860  0.27100  Biso   1.000  C  0.585839
  C93      1.0000 0.94510  0.13110  0.68470  Biso   1.000  C  0.009856
  C94      1.0000 0.88920  0.14060  0.77770  Biso   1.000  C  0.576939
  C95      1.0000 0.88740  0.11710  0.42620  Biso   1.000  C  0.639755
  C96      1.0000 0.94490  0.12260  0.51850  Biso   1.000  C  -0.020996
  C97      1.0000 0.25110  0.46830  0.95070  Biso   1.000  C  -0.007503
  C98      1.0000 0.23960  0.46790  0.12090  Biso   1.000  C  -0.014307
  C99      1.0000 0.26460  0.43470  0.85800  Biso   1.000  C  0.633973
  C100     1.0000 0.22720  0.43440  0.21070  Biso   1.000  C  0.635377
  C101     1.0000 0.05520  0.37130  0.58670  Biso   1.000  C  -0.012843
  C102     1.0000 0.05530  0.36210  0.75220  Biso   1.000  C  0.015066
  C103     1.0000 0.11120  0.35250  0.84200  Biso   1.000  C  0.574173
  C104     1.0000 0.11190  0.37750  0.49340  Biso   1.000  C  0.642283
  C105     1.0000 0.44570  0.26830  0.80390  Biso   1.000  C  -0.023531
  C106     1.0000 0.44570  0.23240  0.75110  Biso   1.000  C  0.018013
  C107     1.0000 0.38730  0.28790  0.82500  Biso   1.000  C  0.605746
  C108     1.0000 0.38780  0.21140  0.72900  Biso   1.000  C  0.585230
  C109     1.0000 0.44510  0.36890  0.31530  Biso   1.000  C  0.009948
  C110     1.0000 0.38920  0.35940  0.22230  Biso   1.000  C  0.576968
  C111     1.0000 0.38740  0.38290  0.57380  Biso   1.000  C  0.639704
  C112     1.0000 0.44490  0.37740  0.48150  Biso   1.000  C  -0.021124
  C113     1.0000 0.74890  0.53170  0.95070  Biso   1.000  C  -0.007492
  C114     1.0000 0.76040  0.53210  0.12090  Biso   1.000  C  -0.014294
  C115     1.0000 0.73540  0.56530  0.85800  Biso   1.000  C  0.633965
  C116     1.0000 0.77280  0.56560  0.21070  Biso   1.000  C  0.635376
  C117     1.0000 0.94480  0.62870  0.58670  Biso   1.000  C  -0.012803
  C118     1.0000 0.94470  0.63790  0.75220  Biso   1.000  C  0.015045
  C119     1.0000 0.88880  0.64750  0.84200  Biso   1.000  C  0.574186
  C120     1.0000 0.88810  0.62250  0.49340  Biso   1.000  C  0.642436
  C121     1.0000 0.55430  0.73170  0.80390  Biso   1.000  C  -0.023561
  C122     1.0000 0.55430  0.76760  0.75110  Biso   1.000  C  0.018035
  C123     1.0000 0.61270  0.71210  0.82500  Biso   1.000  C  0.605827
  C124     1.0000 0.61220  0.78860  0.72900  Biso   1.000  C  0.585344
  C125     1.0000 0.55490  0.63110  0.31530  Biso   1.000  C  0.009951
  C126     1.0000 0.61080  0.64060  0.22230  Biso   1.000  C  0.577009
  C127     1.0000 0.61260  0.61710  0.57380  Biso   1.000  C  0.639696
  C128     1.0000 0.55510  0.62260  0.48150  Biso   1.000  C  -0.021112
  C129     1.0000 0.23440  0.50000  0.19800  Biso   1.000  C  -0.115069
  C130     1.0000 0.25720  0.50000  0.86940  Biso   1.000  C  -0.121833
  C131     1.0000 0.76560  0.50000  0.19800  Biso   1.000  C  -0.115072
  C132     1.0000 0.74280  0.50000  0.86940  Biso   1.000  C  -0.121835
  C133     1.0000 0.26560  0.00000  0.80200  Biso   1.000  C  -0.115073
  C134     1.0000 0.24280  0.00000  0.13060  Biso   1.000  C  -0.121815
  C135     1.0000 0.73440  0.00000  0.80200  Biso   1.000  C  -0.115072
  C136     1.0000 0.75720  0.00000  0.13060  Biso   1.000  C  -0.121821
  C137     1.0000 0.00000  0.64200  0.83000  Biso   1.000  C  -0.129358
  C138     1.0000 0.00000  0.62450  0.51100  Biso   1.000  C  -0.121659
  C139     1.0000 0.00000  0.35800  0.83000  Biso   1.000  C  -0.129171
  C140     1.0000 0.00000  0.37550  0.51100  Biso   1.000  C  -0.121540
  C141     1.0000 0.50000  0.14200  0.17000  Biso   1.000  C  -0.129293
  C142     1.0000 0.50000  0.12450  0.48900  Biso   1.000  C  -0.121656
  C143     1.0000 0.50000  0.85800  0.17000  Biso   1.000  C  -0.129361
  C144     1.0000 0.50000  0.87550  0.48900  Biso   1.000  C  -0.121661
  C145     1.0000 0.50000  0.71430  0.83700  Biso   1.000  C  -0.106177
  C146     1.0000 0.50000  0.78380  0.72800  Biso   1.000  C  -0.126142
  C147     1.0000 0.50000  0.63520  0.23500  Biso   1.000  C  -0.131960
  C148     1.0000 0.50000  0.61960  0.56370  Biso   1.000  C  -0.117128
  C149     1.0000 0.50000  0.28570  0.83700  Biso   1.000  C  -0.106154
  C150     1.0000 0.50000  0.21620  0.72800  Biso   1.000  C  -0.126105
  C151     1.0000 0.50000  0.36480  0.23500  Biso   1.000  C  -0.131931
  C152     1.0000 0.50000  0.38040  0.56370  Biso   1.000  C  -0.117119
  C153     1.0000 0.00000  0.21430  0.16300  Biso   1.000  C  -0.108808
  C154     1.0000 0.00000  0.28380  0.27200  Biso   1.000  C  -0.127692
  C155     1.0000 0.00000  0.13520  0.76500  Biso   1.000  C  -0.131327
  C156     1.0000 0.00000  0.11960  0.43630  Biso   1.000  C  -0.116822
  C157     1.0000 0.00000  0.78570  0.16300  Biso   1.000  C  -0.106177
  C158     1.0000 0.00000  0.71620  0.27200  Biso   1.000  C  -0.126141
  C159     1.0000 0.00000  0.86480  0.76500  Biso   1.000  C  -0.131955
  C160     1.0000 0.00000  0.88040  0.43630  Biso   1.000  C  -0.117116
  H1       1.0000 0.23870  0.67556  0.36370  Biso   1.000  H  0.402827
  H2       1.0000 0.23530  0.82594  0.29440  Biso   1.000  H  0.399334
  H3       1.0000 0.24870  0.80844  0.96790  Biso   1.000  H  0.396187
  H4       1.0000 0.76130  0.32444  0.36370  Biso   1.000  H  0.402877
  H5       1.0000 0.76470  0.17406  0.29440  Biso   1.000  H  0.399600
  H6       1.0000 0.75130  0.19156  0.96790  Biso   1.000  H  0.396330
  H7       1.0000 0.26130  0.17556  0.63630  Biso   1.000  H  0.403222
  H8       1.0000 0.26470  0.32594  0.70560  Biso   1.000  H  0.399431
  H9       1.0000 0.25130  0.30844  0.03210  Biso   1.000  H  0.396673
  H10      1.0000 0.73870  0.82444  0.63630  Biso   1.000  H  0.402830
  H11      1.0000 0.73530  0.67406  0.70560  Biso   1.000  H  0.399329
  H12      1.0000 0.74870  0.69156  0.03210  Biso   1.000  H  0.396185
  H13      1.0000 0.26130  0.82444  0.63630  Biso   1.000  H  0.402833
  H14      1.0000 0.26470  0.67406  0.70560  Biso   1.000  H  0.399328
  H15      1.0000 0.25130  0.69156  0.03210  Biso   1.000  H  0.396185
  H16      1.0000 0.73870  0.17556  0.63630  Biso   1.000  H  0.402957
  H17      1.0000 0.73530  0.32594  0.70560  Biso   1.000  H  0.399358
  H18      1.0000 0.74870  0.30844  0.03210  Biso   1.000  H  0.396332
  H19      1.0000 0.23870  0.32444  0.36370  Biso   1.000  H  0.403135
  H20      1.0000 0.23530  0.17406  0.29440  Biso   1.000  H  0.400136
  H21      1.0000 0.24870  0.19156  0.96790  Biso   1.000  H  0.396854
  H22      1.0000 0.76130  0.67556  0.36370  Biso   1.000  H  0.402828
  H23      1.0000 0.76470  0.82594  0.29440  Biso   1.000  H  0.399331
  H24      1.0000 0.75130  0.80844  0.96790  Biso   1.000  H  0.396186
  H25      1.0000 0.22700  0.50000  0.30910  Biso   1.000  H  0.136499
  H26      1.0000 0.26540  0.50000  0.75870  Biso   1.000  H  0.142425
  H27      1.0000 0.77300  0.50000  0.30910  Biso   1.000  H  0.136502
  H28      1.0000 0.73460  0.50000  0.75870  Biso   1.000  H  0.142428
  H29      1.0000 0.27300  0.00000  0.69090  Biso   1.000  H  0.136518
  H30      1.0000 0.23460  0.00000  0.24130  Biso   1.000  H  0.142455
  H31      1.0000 0.72700  0.00000  0.69090  Biso   1.000  H  0.136510
  H32      1.0000 0.76540  0.00000  0.24130  Biso   1.000  H  0.142443
  H33      1.0000 0.00000  0.64780  0.94000  Biso   1.000  H  0.130292
  H34      1.0000 0.00000  0.61850  0.40180  Biso   1.000  H  0.132335
  H35      1.0000 0.00000  0.35220  0.94000  Biso   1.000  H  0.130366
  H36      1.0000 0.00000  0.38150  0.40180  Biso   1.000  H  0.132368
  H37      1.0000 0.50000  0.14780  0.06000  Biso   1.000  H  0.130292
  H38      1.0000 0.50000  0.11850  0.59820  Biso   1.000  H  0.132336
  H39      1.0000 0.50000  0.85220  0.06000  Biso   1.000  H  0.130293
  H40      1.0000 0.50000  0.88150  0.59820  Biso   1.000  H  0.132333
  H41      1.0000 0.50000  0.69150  0.88000  Biso   1.000  H  0.144851
  H42      1.0000 0.50000  0.80730  0.69390  Biso   1.000  H  0.132436
  H43      1.0000 0.50000  0.64090  0.12560  Biso   1.000  H  0.136780
  H44      1.0000 0.50000  0.61550  0.67500  Biso   1.000  H  0.141942
  H45      1.0000 0.50000  0.30850  0.88000  Biso   1.000  H  0.144849
  H46      1.0000 0.50000  0.19270  0.69390  Biso   1.000  H  0.132435
  H47      1.0000 0.50000  0.35910  0.12560  Biso   1.000  H  0.136777
  H48      1.0000 0.50000  0.38450  0.67500  Biso   1.000  H  0.141940
  H49      1.0000 0.00000  0.19150  0.12000  Biso   1.000  H  0.145083
  H50      1.0000 0.00000  0.30730  0.30610  Biso   1.000  H  0.132131
  H51      1.0000 0.00000  0.14090  0.87440  Biso   1.000  H  0.136965
  H52      1.0000 0.00000  0.11550  0.32500  Biso   1.000  H  0.142026
  H53      1.0000 0.00000  0.80850  0.12000  Biso   1.000  H  0.144851
  H54      1.0000 0.00000  0.69270  0.30610  Biso   1.000  H  0.132436
  H55      1.0000 0.00000  0.85910  0.87440  Biso   1.000  H  0.136780
  H56      1.0000 0.00000  0.88450  0.32500  Biso   1.000  H  0.141945
  In1      1.0000 0.32485  0.64231  0.90306  Biso   1.000  In  1.558855
  In2      1.0000 0.17783  0.64483  0.16901  Biso   1.000  In  1.559250
  In3      1.0000 0.24973  0.60776  0.53459  Biso   1.000  In  1.639143
  In4      1.0000 0.67515  0.35769  0.90306  Biso   1.000  In  1.558828
  In5      1.0000 0.82217  0.35517  0.16901  Biso   1.000  In  1.559146
  In6      1.0000 0.75027  0.39224  0.53459  Biso   1.000  In  1.639164
  In7      1.0000 0.17515  0.14231  0.09694  Biso   1.000  In  1.560216
  In8      1.0000 0.32217  0.14483  0.83099  Biso   1.000  In  1.558702
  In9      1.0000 0.25027  0.10776  0.46541  Biso   1.000  In  1.638854
  In10     1.0000 0.82485  0.85769  0.09694  Biso   1.000  In  1.558853
  In11     1.0000 0.67783  0.85517  0.83099  Biso   1.000  In  1.559252
  In12     1.0000 0.74973  0.89224  0.46541  Biso   1.000  In  1.639145
  In13     1.0000 0.17515  0.85769  0.09694  Biso   1.000  In  1.558855
  In14     1.0000 0.32217  0.85517  0.83099  Biso   1.000  In  1.559253
  In15     1.0000 0.25027  0.89224  0.46541  Biso   1.000  In  1.639149
  In16     1.0000 0.82485  0.14231  0.09694  Biso   1.000  In  1.559246
  In17     1.0000 0.67783  0.14483  0.83099  Biso   1.000  In  1.559099
  In18     1.0000 0.74973  0.10776  0.46541  Biso   1.000  In  1.639092
  In19     1.0000 0.32485  0.35769  0.90306  Biso   1.000  In  1.558801
  In20     1.0000 0.17783  0.35517  0.16901  Biso   1.000  In  1.559017
  In21     1.0000 0.24973  0.39224  0.53459  Biso   1.000  In  1.639077
  In22     1.0000 0.67515  0.64231  0.90306  Biso   1.000  In  1.558855
  In23     1.0000 0.82217  0.64483  0.16901  Biso   1.000  In  1.559250
  In24     1.0000 0.75027  0.60776  0.53459  Biso   1.000  In  1.639144
  O1       1.0000 0.24710  0.56640  0.35710  Biso   1.000  O  -0.570170
  O2       1.0000 0.23870  0.64910  0.36370  Biso   1.000  O  -0.888183
  O3       1.0000 0.26470  0.64760  0.70560  Biso   1.000  O  -0.900224
  O4       1.0000 0.24510  0.56640  0.71340  Biso   1.000  O  -0.560024
  O5       1.0000 0.25130  0.66510  0.03210  Biso   1.000  O  -0.869092
  O6       1.0000 0.11090  0.62900  0.34610  Biso   1.000  O  -0.578916
  O7       1.0000 0.15420  0.61020  0.57310  Biso   1.000  O  -0.554154
  O8       1.0000 0.38320  0.62370  0.08940  Biso   1.000  O  -0.529388
  O9       1.0000 0.11740  0.63030  0.97720  Biso   1.000  O  -0.548304
  O10      1.0000 0.19920  0.58900  0.14100  Biso   1.000  O  -0.546838
  O11      1.0000 0.29600  0.58760  0.92810  Biso   1.000  O  -0.554408
  O12      1.0000 0.38930  0.62290  0.72030  Biso   1.000  O  -0.568248
  O13      1.0000 0.34460  0.60540  0.49300  Biso   1.000  O  -0.560696
  O14      1.0000 0.36820  0.80530  0.83450  Biso   1.000  O  -0.500805
  O15      1.0000 0.38560  0.68680  0.90710  Biso   1.000  O  -0.534337
  O16      1.0000 0.14410  0.67070  0.79200  Biso   1.000  O  -0.354990
  O17      1.0000 0.34170  0.72290  0.74600  Biso   1.000  O  -0.493045
  O18      1.0000 0.37350  0.79300  0.57200  Biso   1.000  O  -0.383483
  O19      1.0000 0.35610  0.66440  0.27040  Biso   1.000  O  -0.381984
  O20      1.0000 0.75290  0.43360  0.35710  Biso   1.000  O  -0.570158
  O21      1.0000 0.76130  0.35090  0.36370  Biso   1.000  O  -0.888403
  O22      1.0000 0.73530  0.35240  0.70560  Biso   1.000  O  -0.900233
  O23      1.0000 0.75490  0.43360  0.71340  Biso   1.000  O  -0.560021
  O24      1.0000 0.74870  0.33490  0.03210  Biso   1.000  O  -0.869024
  O25      1.0000 0.88910  0.37100  0.34610  Biso   1.000  O  -0.578990
  O26      1.0000 0.84580  0.38980  0.57310  Biso   1.000  O  -0.554176
  O27      1.0000 0.61680  0.37630  0.08940  Biso   1.000  O  -0.529359
  O28      1.0000 0.88260  0.36970  0.97720  Biso   1.000  O  -0.548261
  O29      1.0000 0.80080  0.41100  0.14100  Biso   1.000  O  -0.546793
  O30      1.0000 0.70400  0.41240  0.92810  Biso   1.000  O  -0.554400
  O31      1.0000 0.61070  0.37710  0.72030  Biso   1.000  O  -0.568255
  O32      1.0000 0.65540  0.39460  0.49300  Biso   1.000  O  -0.560691
  O33      1.0000 0.63180  0.19470  0.83450  Biso   1.000  O  -0.500663
  O34      1.0000 0.61440  0.31320  0.90710  Biso   1.000  O  -0.534303
  O35      1.0000 0.85590  0.32930  0.79200  Biso   1.000  O  -0.354830
  O36      1.0000 0.65830  0.27710  0.74600  Biso   1.000  O  -0.492779
  O37      1.0000 0.62650  0.20700  0.57200  Biso   1.000  O  -0.383164
  O38      1.0000 0.64390  0.33560  0.27040  Biso   1.000  O  -0.381862
  O39      1.0000 0.25290  0.06640  0.64290  Biso   1.000  O  -0.569916
  O40      1.0000 0.26130  0.14910  0.63630  Biso   1.000  O  -0.887481
  O41      1.0000 0.23530  0.14760  0.29440  Biso   1.000  O  -0.899819
  O42      1.0000 0.25490  0.06640  0.28660  Biso   1.000  O  -0.559883
  O43      1.0000 0.24870  0.16510  0.96790  Biso   1.000  O  -0.868099
  O44      1.0000 0.38910  0.12900  0.65390  Biso   1.000  O  -0.578906
  O45      1.0000 0.34580  0.11020  0.42690  Biso   1.000  O  -0.554102
  O46      1.0000 0.11680  0.12370  0.91060  Biso   1.000  O  -0.529110
  O47      1.0000 0.38260  0.13030  0.02280  Biso   1.000  O  -0.548180
  O48      1.0000 0.30080  0.08900  0.85900  Biso   1.000  O  -0.546606
  O49      1.0000 0.20400  0.08760  0.07190  Biso   1.000  O  -0.553975
  O50      1.0000 0.11070  0.12290  0.27970  Biso   1.000  O  -0.567616
  O51      1.0000 0.15540  0.10540  0.50700  Biso   1.000  O  -0.560928
  O52      1.0000 0.13180  0.30530  0.16550  Biso   1.000  O  -0.500574
  O53      1.0000 0.11440  0.18680  0.09290  Biso   1.000  O  -0.539268
  O54      1.0000 0.35590  0.17070  0.20800  Biso   1.000  O  -0.353994
  O55      1.0000 0.15830  0.22290  0.25400  Biso   1.000  O  -0.516189
  O56      1.0000 0.12650  0.29300  0.42800  Biso   1.000  O  -0.377600
  O57      1.0000 0.14390  0.16440  0.72960  Biso   1.000  O  -0.378928
  O58      1.0000 0.74710  0.93360  0.64290  Biso   1.000  O  -0.570141
  O59      1.0000 0.73870  0.85090  0.63630  Biso   1.000  O  -0.888196
  O60      1.0000 0.76470  0.85240  0.29440  Biso   1.000  O  -0.900236
  O61      1.0000 0.74510  0.93360  0.28660  Biso   1.000  O  -0.560011
  O62      1.0000 0.75130  0.83490  0.96790  Biso   1.000  O  -0.869108
  O63      1.0000 0.61090  0.87100  0.65390  Biso   1.000  O  -0.578919
  O64      1.0000 0.65420  0.88980  0.42690  Biso   1.000  O  -0.554161
  O65      1.0000 0.88320  0.87630  0.91060  Biso   1.000  O  -0.529382
  O66      1.0000 0.61740  0.86970  0.02280  Biso   1.000  O  -0.548314
  O67      1.0000 0.69920  0.91100  0.85900  Biso   1.000  O  -0.546817
  O68      1.0000 0.79600  0.91240  0.07190  Biso   1.000  O  -0.554366
  O69      1.0000 0.88930  0.87710  0.27970  Biso   1.000  O  -0.568245
  O70      1.0000 0.84460  0.89460  0.50700  Biso   1.000  O  -0.560693
  O71      1.0000 0.86820  0.69470  0.16550  Biso   1.000  O  -0.500805
  O72      1.0000 0.88560  0.81320  0.09290  Biso   1.000  O  -0.534337
  O73      1.0000 0.64410  0.82930  0.20800  Biso   1.000  O  -0.354991
  O74      1.0000 0.84170  0.77710  0.25400  Biso   1.000  O  -0.493044
  O75      1.0000 0.87350  0.70700  0.42800  Biso   1.000  O  -0.383481
  O76      1.0000 0.85610  0.83560  0.72960  Biso   1.000  O  -0.381981
  O77      1.0000 0.25290  0.93360  0.64290  Biso   1.000  O  -0.570131
  O78      1.0000 0.26130  0.85090  0.63630  Biso   1.000  O  -0.888205
  O79      1.0000 0.23530  0.85240  0.29440  Biso   1.000  O  -0.900246
  O80      1.0000 0.25490  0.93360  0.28660  Biso   1.000  O  -0.560008
  O81      1.0000 0.24870  0.83490  0.96790  Biso   1.000  O  -0.869121
  O82      1.0000 0.38910  0.87100  0.65390  Biso   1.000  O  -0.578921
  O83      1.0000 0.34580  0.88980  0.42690  Biso   1.000  O  -0.554168
  O84      1.0000 0.11680  0.87630  0.91060  Biso   1.000  O  -0.529390
  O85      1.0000 0.38260  0.86970  0.02280  Biso   1.000  O  -0.548322
  O86      1.0000 0.30080  0.91100  0.85900  Biso   1.000  O  -0.546799
  O87      1.0000 0.20400  0.91240  0.07190  Biso   1.000  O  -0.554343
  O88      1.0000 0.11070  0.87710  0.27970  Biso   1.000  O  -0.568246
  O89      1.0000 0.15540  0.89460  0.50700  Biso   1.000  O  -0.560699
  O90      1.0000 0.13180  0.69470  0.16550  Biso   1.000  O  -0.500805
  O91      1.0000 0.11440  0.81320  0.09290  Biso   1.000  O  -0.534338
  O92      1.0000 0.35590  0.82930  0.20800  Biso   1.000  O  -0.354994
  O93      1.0000 0.15830  0.77710  0.25400  Biso   1.000  O  -0.493044
  O94      1.0000 0.12650  0.70700  0.42800  Biso   1.000  O  -0.383482
  O95      1.0000 0.14390  0.83560  0.72960  Biso   1.000  O  -0.381985
  O96      1.0000 0.74710  0.06640  0.64290  Biso   1.000  O  -0.570046
  O97      1.0000 0.73870  0.14910  0.63630  Biso   1.000  O  -0.887861
  O98      1.0000 0.76470  0.14760  0.29440  Biso   1.000  O  -0.900273
  O99      1.0000 0.74510  0.06640  0.28660  Biso   1.000  O  -0.559918
  O100     1.0000 0.75130  0.16510  0.96790  Biso   1.000  O  -0.869121
  O101     1.0000 0.61090  0.12900  0.65390  Biso   1.000  O  -0.578928
  O102     1.0000 0.65420  0.11020  0.42690  Biso   1.000  O  -0.554148
  O103     1.0000 0.88320  0.12370  0.91060  Biso   1.000  O  -0.529158
  O104     1.0000 0.61740  0.13030  0.02280  Biso   1.000  O  -0.548272
  O105     1.0000 0.69920  0.08900  0.85900  Biso   1.000  O  -0.546721
  O106     1.0000 0.79600  0.08760  0.07190  Biso   1.000  O  -0.554167
  O107     1.0000 0.88930  0.12290  0.27970  Biso   1.000  O  -0.568284
  O108     1.0000 0.84460  0.10540  0.50700  Biso   1.000  O  -0.560920
  O109     1.0000 0.86820  0.30530  0.16550  Biso   1.000  O  -0.500578
  O110     1.0000 0.88560  0.18680  0.09290  Biso   1.000  O  -0.535174
  O111     1.0000 0.64410  0.17070  0.20800  Biso   1.000  O  -0.354614
  O112     1.0000 0.84170  0.22290  0.25400  Biso   1.000  O  -0.499803
  O113     1.0000 0.87350  0.29300  0.42800  Biso   1.000  O  -0.380841
  O114     1.0000 0.85610  0.16440  0.72960  Biso   1.000  O  -0.381005
  O115     1.0000 0.24710  0.43360  0.35710  Biso   1.000  O  -0.570179
  O116     1.0000 0.23870  0.35090  0.36370  Biso   1.000  O  -0.887645
  O117     1.0000 0.26470  0.35240  0.70560  Biso   1.000  O  -0.900313
  O118     1.0000 0.24510  0.43360  0.71340  Biso   1.000  O  -0.560036
  O119     1.0000 0.25130  0.33490  0.03210  Biso   1.000  O  -0.868978
  O120     1.0000 0.11090  0.37100  0.34610  Biso   1.000  O  -0.579029
  O121     1.0000 0.15420  0.38980  0.57310  Biso   1.000  O  -0.554183
  O122     1.0000 0.38320  0.37630  0.08940  Biso   1.000  O  -0.529380
  O123     1.0000 0.11740  0.36970  0.97720  Biso   1.000  O  -0.548191
  O124     1.0000 0.19920  0.41100  0.14100  Biso   1.000  O  -0.546820
  O125     1.0000 0.29600  0.41240  0.92810  Biso   1.000  O  -0.554428
  O126     1.0000 0.38930  0.37710  0.72030  Biso   1.000  O  -0.568240
  O127     1.0000 0.34460  0.39460  0.49300  Biso   1.000  O  -0.560713
  O128     1.0000 0.36820  0.19470  0.83450  Biso   1.000  O  -0.500522
  O129     1.0000 0.38560  0.31320  0.90710  Biso   1.000  O  -0.534235
  O130     1.0000 0.14410  0.32930  0.79200  Biso   1.000  O  -0.354483
  O131     1.0000 0.34170  0.27710  0.74600  Biso   1.000  O  -0.492301
  O132     1.0000 0.37350  0.20700  0.57200  Biso   1.000  O  -0.382682
  O133     1.0000 0.35610  0.33560  0.27040  Biso   1.000  O  -0.381807
  O134     1.0000 0.75290  0.56640  0.35710  Biso   1.000  O  -0.570167
  O135     1.0000 0.76130  0.64910  0.36370  Biso   1.000  O  -0.888186
  O136     1.0000 0.73530  0.64760  0.70560  Biso   1.000  O  -0.900227
  O137     1.0000 0.75490  0.56640  0.71340  Biso   1.000  O  -0.560021
  O138     1.0000 0.74870  0.66510  0.03210  Biso   1.000  O  -0.869095
  O139     1.0000 0.88910  0.62900  0.34610  Biso   1.000  O  -0.578916
  O140     1.0000 0.84580  0.61020  0.57310  Biso   1.000  O  -0.554156
  O141     1.0000 0.61680  0.62370  0.08940  Biso   1.000  O  -0.529390
  O142     1.0000 0.88260  0.63030  0.97720  Biso   1.000  O  -0.548307
  O143     1.0000 0.80080  0.58900  0.14100  Biso   1.000  O  -0.546833
  O144     1.0000 0.70400  0.58760  0.92810  Biso   1.000  O  -0.554403
  O145     1.0000 0.61070  0.62290  0.72030  Biso   1.000  O  -0.568249
  O146     1.0000 0.65540  0.60540  0.49300  Biso   1.000  O  -0.560698
  O147     1.0000 0.63180  0.80530  0.83450  Biso   1.000  O  -0.500805
  O148     1.0000 0.61440  0.68680  0.90710  Biso   1.000  O  -0.534338
  O149     1.0000 0.85590  0.67070  0.79200  Biso   1.000  O  -0.354992
  O150     1.0000 0.65830  0.72290  0.74600  Biso   1.000  O  -0.493047
  O151     1.0000 0.62650  0.79300  0.57200  Biso   1.000  O  -0.383483
  O152     1.0000 0.64390  0.66440  0.27040  Biso   1.000  O  -0.381983
