data_image0
_cell_length_a       11.0819
_cell_length_b       11.3246
_cell_length_c       11.8869
_cell_angle_alpha    105.188
_cell_angle_beta     109.69
_cell_angle_gamma    102.221

_symmetry_space_group_name_H-M    "P 1"
_symmetry_int_tables_number       1

loop_
  _symmetry_equiv_pos_as_xyz
  'x, y, z'

loop_
  _atom_site_label
  _atom_site_occupancy
  _atom_site_fract_x
  _atom_site_fract_y
  _atom_site_fract_z
  _atom_site_thermal_displace_type
  _atom_site_B_iso_or_equiv
  _atom_site_type_symbol
  _atom_site_charge
  C1       1.0000 0.58770  0.29870  0.08620  Biso   1.000  C  0.560841
  C2       1.0000 0.41230  0.70130  0.91380  Biso   1.000  C  0.560841
  C3       1.0000 0.69320  0.29770  0.20460  Biso   1.000  C  -0.026473
  C4       1.0000 0.30680  0.70230  0.79540  Biso   1.000  C  -0.026473
  C5       1.0000 0.76130  0.20720  0.19390  Biso   1.000  C  -0.116725
  C6       1.0000 0.23870  0.79280  0.80610  Biso   1.000  C  -0.116725
  C7       1.0000 0.85980  0.20890  0.30370  Biso   1.000  C  -0.116177
  C8       1.0000 0.14020  0.79110  0.69630  Biso   1.000  C  -0.116177
  C9       1.0000 0.88920  0.29710  0.42310  Biso   1.000  C  -0.018978
  C10      1.0000 0.11080  0.70290  0.57690  Biso   1.000  C  -0.018978
  C11      1.0000 0.82070  0.38480  0.43150  Biso   1.000  C  -0.105428
  C12      1.0000 0.17930  0.61520  0.56850  Biso   1.000  C  -0.105428
  C13      1.0000 0.72510  0.38570  0.32340  Biso   1.000  C  -0.107505
  C14      1.0000 0.27490  0.61430  0.67660  Biso   1.000  C  -0.107505
  C15      1.0000 0.99480  0.29560  0.54080  Biso   1.000  C  0.572500
  C16      1.0000 0.00520  0.70440  0.45920  Biso   1.000  C  0.572500
  C17      1.0000 0.14080  0.13120  0.87790  Biso   1.000  C  0.601844
  C18      1.0000 0.85920  0.86880  0.12210  Biso   1.000  C  0.601844
  C19      1.0000 0.06440  0.05940  0.93780  Biso   1.000  C  -0.024856
  C20      1.0000 0.93560  0.94060  0.06220  Biso   1.000  C  -0.024856
  C21      1.0000 0.13850  0.02730  0.04090  Biso   1.000  C  -0.103796
  C22      1.0000 0.86150  0.97270  0.95910  Biso   1.000  C  -0.103796
  C23      1.0000 0.92850  0.03210  0.89900  Biso   1.000  C  -0.112621
  C24      1.0000 0.07150  0.96790  0.10100  Biso   1.000  C  -0.112621
  C25      1.0000 0.27040  0.05310  0.58170  Biso   1.000  C  0.123182
  C26      1.0000 0.72960  0.94690  0.41830  Biso   1.000  C  0.123182
  C27      1.0000 0.24460  0.95390  0.46930  Biso   1.000  C  -0.188455
  C28      1.0000 0.75540  0.04610  0.53070  Biso   1.000  C  -0.188455
  C29      1.0000 0.32910  0.87970  0.47530  Biso   1.000  C  0.201279
  C30      1.0000 0.67090  0.12030  0.52470  Biso   1.000  C  0.201279
  C31      1.0000 0.43240  0.90250  0.59020  Biso   1.000  C  -0.191926
  C32      1.0000 0.56760  0.09750  0.40980  Biso   1.000  C  -0.191926
  C33      1.0000 0.45070  0.00120  0.69640  Biso   1.000  C  0.094400
  C34      1.0000 0.54930  0.99880  0.30360  Biso   1.000  C  0.094400
  C35      1.0000 0.22510  0.67200  0.15500  Biso   1.000  C  0.208245
  C36      1.0000 0.77490  0.32800  0.84500  Biso   1.000  C  0.208245
  C37      1.0000 0.13000  0.65860  0.03900  Biso   1.000  C  -0.186798
  C38      1.0000 0.87000  0.34140  0.96100  Biso   1.000  C  -0.186798
  C39      1.0000 0.11090  0.56000  0.92990  Biso   1.000  C  0.103670
  C40      1.0000 0.88910  0.44000  0.07010  Biso   1.000  C  0.103670
  C41      1.0000 0.27590  0.49500  0.04970  Biso   1.000  C  0.106516
  C42      1.0000 0.72410  0.50500  0.95030  Biso   1.000  C  0.106516
  C43      1.0000 0.30070  0.58850  0.16160  Biso   1.000  C  -0.192441
  C44      1.0000 0.69930  0.41150  0.83840  Biso   1.000  C  -0.192441
  H1       1.0000 0.37230  0.39260  0.82270  Biso   1.000  H  0.709006
  H2       1.0000 0.62770  0.60740  0.17730  Biso   1.000  H  0.709006
  H3       1.0000 0.74070  0.14690  0.11420  Biso   1.000  H  0.115332
  H4       1.0000 0.25930  0.85310  0.88580  Biso   1.000  H  0.115332
  H5       1.0000 0.90680  0.15030  0.29750  Biso   1.000  H  0.111274
  H6       1.0000 0.09320  0.84970  0.70250  Biso   1.000  H  0.111274
  H7       1.0000 0.83940  0.44370  0.51130  Biso   1.000  H  0.116145
  H8       1.0000 0.16060  0.55630  0.48870  Biso   1.000  H  0.116146
  H9       1.0000 0.68110  0.44690  0.33030  Biso   1.000  H  0.118050
  H10      1.0000 0.31890  0.55310  0.66970  Biso   1.000  H  0.118050
  H11      1.0000 0.23180  0.04600  0.06830  Biso   1.000  H  0.119564
  H12      1.0000 0.76820  0.95400  0.93170  Biso   1.000  H  0.119564
  H13      1.0000 0.87970  0.05360  0.83130  Biso   1.000  H  0.102230
  H14      1.0000 0.12030  0.94640  0.16870  Biso   1.000  H  0.102230
  H15      1.0000 0.21490  0.10450  0.57860  Biso   1.000  H  0.114405
  H16      1.0000 0.78510  0.89550  0.42140  Biso   1.000  H  0.114405
  H17      1.0000 0.17250  0.93810  0.39260  Biso   1.000  H  0.143926
  H18      1.0000 0.82750  0.06190  0.60740  Biso   1.000  H  0.143926
  H19      1.0000 0.48880  0.85200  0.59590  Biso   1.000  H  0.143354
  H20      1.0000 0.51120  0.14800  0.40410  Biso   1.000  H  0.143354
  H21      1.0000 0.52080  0.01680  0.77430  Biso   1.000  H  0.104375
  H22      1.0000 0.47920  0.98320  0.22570  Biso   1.000  H  0.104375
  H23      1.0000 0.07930  0.71440  0.03350  Biso   1.000  H  0.141530
  H24      1.0000 0.92070  0.28560  0.96650  Biso   1.000  H  0.141531
  H25      1.0000 0.04630  0.55040  0.85100  Biso   1.000  H  0.106839
  H26      1.0000 0.95370  0.44960  0.14900  Biso   1.000  H  0.106839
  H27      1.0000 0.32670  0.43930  0.05320  Biso   1.000  H  0.103086
  H28      1.0000 0.67330  0.56070  0.94680  Biso   1.000  H  0.103086
  H29      1.0000 0.36570  0.59610  0.23940  Biso   1.000  H  0.142596
  H30      1.0000 0.63430  0.40390  0.76060  Biso   1.000  H  0.142597
  N1       1.0000 0.37190  0.07650  0.69300  Biso   1.000  N  -0.223206
  N2       1.0000 0.62810  0.92350  0.30700  Biso   1.000  N  -0.223206
  N3       1.0000 0.30960  0.77350  0.36720  Biso   1.000  N  -0.102411
  N4       1.0000 0.69040  0.22650  0.63280  Biso   1.000  N  -0.102411
  N5       1.0000 0.24370  0.77900  0.26380  Biso   1.000  N  -0.088682
  N6       1.0000 0.75630  0.22100  0.73620  Biso   1.000  N  -0.088682
  N7       1.0000 0.18230  0.47850  0.93460  Biso   1.000  N  -0.234917
  N8       1.0000 0.81770  0.52150  0.06540  Biso   1.000  N  -0.234917
  O1       1.0000 0.56400  0.21360  0.97930  Biso   1.000  O  -0.578151
  O2       1.0000 0.43600  0.78640  0.02070  Biso   1.000  O  -0.578151
  O3       1.0000 0.52770  0.37940  0.09380  Biso   1.000  O  -0.555425
  O4       1.0000 0.47230  0.62060  0.90620  Biso   1.000  O  -0.555425
  O5       1.0000 0.06630  0.22770  0.53310  Biso   1.000  O  -0.558787
  O6       1.0000 0.93370  0.77230  0.46690  Biso   1.000  O  -0.558787
  O7       1.0000 0.00510  0.36530  0.64770  Biso   1.000  O  -0.580734
  O8       1.0000 0.99490  0.63470  0.35230  Biso   1.000  O  -0.580734
  O9       1.0000 0.26120  0.13620  0.90640  Biso   1.000  O  -0.544808
  O10      1.0000 0.73880  0.86380  0.09360  Biso   1.000  O  -0.544809
  O11      1.0000 0.07660  0.18010  0.80580  Biso   1.000  O  -0.558611
  O12      1.0000 0.92340  0.81990  0.19420  Biso   1.000  O  -0.558610
  O13      1.0000 0.33730  0.34510  0.79210  Biso   1.000  O  -1.220298
  O14      1.0000 0.66270  0.65490  0.20790  Biso   1.000  O  -1.220298
  Zn1      1.0000 0.39861  0.22033  0.85518  Biso   1.000  Zn  0.874638
  Zn2      1.0000 0.60139  0.77967  0.14482  Biso   1.000  Zn  0.874638
  Zn3      1.0000 0.15333  0.33251  0.76861  Biso   1.000  Zn  0.899382
  Zn4      1.0000 0.84667  0.66749  0.23139  Biso   1.000  Zn  0.899381
