data_image0
_cell_length_a       18.064
_cell_length_b       22.1137
_cell_length_c       22.1137
_cell_angle_alpha    80.397
_cell_angle_beta     65.8934
_cell_angle_gamma    65.8933

_symmetry_space_group_name_H-M    "P 1"
_symmetry_int_tables_number       1

loop_
  _symmetry_equiv_pos_as_xyz
  'x, y, z'

loop_
  _atom_site_label
  _atom_site_occupancy
  _atom_site_fract_x
  _atom_site_fract_y
  _atom_site_fract_z
  _atom_site_thermal_displace_type
  _atom_site_B_iso_or_equiv
  _atom_site_type_symbol
  _atom_site_charge
  C1       1.0000 0.73560  0.95620  0.62960  Biso   1.000  C  0.041154
  C2       1.0000 0.73140  0.96040  0.69240  Biso   1.000  C  -0.212047
  C3       1.0000 0.75020  0.01030  0.70690  Biso   1.000  C  0.083690
  C4       1.0000 0.77370  0.05270  0.65630  Biso   1.000  C  -0.216623
  C5       1.0000 0.77360  0.04639  0.59521  Biso   1.000  C  0.050434
  C6       1.0000 0.68260  0.00570  0.89130  Biso   1.000  C  0.046852
  C7       1.0000 0.68310  0.00260  0.83000  Biso   1.000  C  -0.209809
  C8       1.0000 0.74760  0.01440  0.77400  Biso   1.000  C  0.079761
  C9       1.0000 0.81030  0.03010  0.78210  Biso   1.000  C  -0.219012
  C10      1.0000 0.80640  0.03100  0.84620  Biso   1.000  C  0.044186
  C11      1.0000 0.82140  0.54380  0.87040  Biso   1.000  C  0.040093
  C12      1.0000 0.88420  0.53960  0.80760  Biso   1.000  C  -0.209624
  C13      1.0000 0.96740  0.48970  0.79310  Biso   1.000  C  0.080387
  C14      1.0000 0.98270  0.44730  0.84370  Biso   1.000  C  -0.214303
  C15      1.0000 0.91520  0.45361  0.90479  Biso   1.000  C  0.048995
  C16      1.0000 0.07960  0.49430  0.60870  Biso   1.000  C  0.044678
  C17      1.0000 0.01570  0.49740  0.67000  Biso   1.000  C  -0.212203
  C18      1.0000 0.03600  0.48560  0.72600  Biso   1.000  C  0.079233
  C19      1.0000 0.12250  0.46990  0.71790  Biso   1.000  C  -0.217009
  C20      1.0000 0.18360  0.46900  0.65380  Biso   1.000  C  0.041038
  C21      1.0000 0.67860  0.12960  0.45620  Biso   1.000  C  0.040093
  C22      1.0000 0.61580  0.19240  0.46040  Biso   1.000  C  -0.209624
  C23      1.0000 0.53260  0.20690  0.51030  Biso   1.000  C  0.080381
  C24      1.0000 0.51730  0.15630  0.55270  Biso   1.000  C  -0.214251
  C25      1.0000 0.58480  0.09521  0.54639  Biso   1.000  C  0.048966
  C26      1.0000 0.42040  0.39130  0.50570  Biso   1.000  C  0.044685
  C27      1.0000 0.48430  0.33000  0.50260  Biso   1.000  C  -0.212233
  C28      1.0000 0.46400  0.27400  0.51440  Biso   1.000  C  0.079282
  C29      1.0000 0.37750  0.28210  0.53010  Biso   1.000  C  -0.217042
  C30      1.0000 0.31640  0.34620  0.53100  Biso   1.000  C  0.041052
  C31      1.0000 0.76440  0.37040  0.04380  Biso   1.000  C  0.041145
  C32      1.0000 0.76860  0.30760  0.03960  Biso   1.000  C  -0.212052
  C33      1.0000 0.74980  0.29310  0.98970  Biso   1.000  C  0.083713
  C34      1.0000 0.72630  0.34370  0.94730  Biso   1.000  C  -0.216679
  C35      1.0000 0.72640  0.40479  0.95361  Biso   1.000  C  0.050477
  C36      1.0000 0.81740  0.10870  0.99430  Biso   1.000  C  0.046852
  C37      1.0000 0.81690  0.17000  0.99740  Biso   1.000  C  -0.209809
  C38      1.0000 0.75240  0.22600  0.98560  Biso   1.000  C  0.079758
  C39      1.0000 0.68970  0.21790  0.96990  Biso   1.000  C  -0.219008
  C40      1.0000 0.69360  0.15380  0.96900  Biso   1.000  C  0.044187
  C41      1.0000 0.13480  0.62960  0.54380  Biso   1.000  C  0.039203
  C42      1.0000 0.07620  0.69240  0.53960  Biso   1.000  C  -0.209566
  C43      1.0000 0.04290  0.70690  0.48970  Biso   1.000  C  0.080556
  C44      1.0000 0.07000  0.65630  0.44730  Biso   1.000  C  -0.215482
  C45      1.0000 0.13119  0.59521  0.45361  Biso   1.000  C  0.049257
  C46      1.0000 0.92610  0.89130  0.49430  Biso   1.000  C  0.044981
  C47      1.0000 0.98690  0.83000  0.49740  Biso   1.000  C  -0.210990
  C48      1.0000 0.97840  0.77400  0.48560  Biso   1.000  C  0.081302
  C49      1.0000 0.90760  0.78210  0.46990  Biso   1.000  C  -0.219477
  C50      1.0000 0.84740  0.84620  0.46900  Biso   1.000  C  0.044724
  C51      1.0000 0.80820  0.87040  0.95620  Biso   1.000  C  0.038517
  C52      1.0000 0.80820  0.80760  0.96040  Biso   1.000  C  -0.210212
  C53      1.0000 0.73950  0.79310  0.01030  Biso   1.000  C  0.082242
  C54      1.0000 0.67360  0.84370  0.05270  Biso   1.000  C  -0.214799
  C55      1.0000 0.68001  0.90479  0.04639  Biso   1.000  C  0.050688
  C56      1.0000 0.81170  0.60870  0.00570  Biso   1.000  C  0.046796
  C57      1.0000 0.81430  0.67000  0.00260  Biso   1.000  C  -0.211133
  C58      1.0000 0.73800  0.72600  0.01440  Biso   1.000  C  0.081046
  C59      1.0000 0.65960  0.71790  0.03010  Biso   1.000  C  -0.217437
  C60      1.0000 0.66260  0.65380  0.03100  Biso   1.000  C  0.043544
  C61      1.0000 0.69180  0.04380  0.12960  Biso   1.000  C  0.038518
  C62      1.0000 0.69180  0.03960  0.19240  Biso   1.000  C  -0.210214
  C63      1.0000 0.76050  0.98970  0.20690  Biso   1.000  C  0.082245
  C64      1.0000 0.82640  0.94730  0.15630  Biso   1.000  C  -0.214798
  C65      1.0000 0.81999  0.95361  0.09521  Biso   1.000  C  0.050698
  C66      1.0000 0.68830  0.99430  0.39130  Biso   1.000  C  0.046791
  C67      1.0000 0.68570  0.99740  0.33000  Biso   1.000  C  -0.211131
  C68      1.0000 0.76200  0.98560  0.27400  Biso   1.000  C  0.081044
  C69      1.0000 0.84040  0.96990  0.28210  Biso   1.000  C  -0.217429
  C70      1.0000 0.83740  0.96900  0.34620  Biso   1.000  C  0.043539
  C71      1.0000 0.36520  0.45620  0.37040  Biso   1.000  C  0.039216
  C72      1.0000 0.42380  0.46040  0.30760  Biso   1.000  C  -0.209547
  C73      1.0000 0.45710  0.51030  0.29310  Biso   1.000  C  0.080539
  C74      1.0000 0.43000  0.55270  0.34370  Biso   1.000  C  -0.215474
  C75      1.0000 0.36881  0.54639  0.40479  Biso   1.000  C  0.049266
  C76      1.0000 0.57390  0.50570  0.10870  Biso   1.000  C  0.044982
  C77      1.0000 0.51310  0.50260  0.17000  Biso   1.000  C  -0.210988
  C78      1.0000 0.52160  0.51440  0.22600  Biso   1.000  C  0.081290
  C79      1.0000 0.59240  0.53010  0.21790  Biso   1.000  C  -0.219476
  C80      1.0000 0.65260  0.53100  0.15380  Biso   1.000  C  0.044724
  C81      1.0000 0.86520  0.37040  0.45620  Biso   1.000  C  0.040023
  C82      1.0000 0.92380  0.30760  0.46040  Biso   1.000  C  -0.209834
  C83      1.0000 0.95710  0.29310  0.51030  Biso   1.000  C  0.081351
  C84      1.0000 0.93000  0.34370  0.55270  Biso   1.000  C  -0.215342
  C85      1.0000 0.86881  0.40479  0.54639  Biso   1.000  C  0.050028
  C86      1.0000 0.07390  0.10870  0.50570  Biso   1.000  C  0.045258
  C87      1.0000 0.01310  0.17000  0.50260  Biso   1.000  C  -0.210598
  C88      1.0000 0.02160  0.22600  0.51440  Biso   1.000  C  0.081600
  C89      1.0000 0.09240  0.21790  0.53010  Biso   1.000  C  -0.219129
  C90      1.0000 0.15260  0.15380  0.53100  Biso   1.000  C  0.045087
  C91      1.0000 0.19180  0.12960  0.04380  Biso   1.000  C  0.038517
  C92      1.0000 0.19180  0.19240  0.03960  Biso   1.000  C  -0.210243
  C93      1.0000 0.26050  0.20690  0.98970  Biso   1.000  C  0.082229
  C94      1.0000 0.32640  0.15630  0.94730  Biso   1.000  C  -0.214801
  C95      1.0000 0.31999  0.09521  0.95361  Biso   1.000  C  0.050698
  C96      1.0000 0.18830  0.39130  0.99430  Biso   1.000  C  0.046619
  C97      1.0000 0.18570  0.33000  0.99740  Biso   1.000  C  -0.211076
  C98      1.0000 0.26200  0.27400  0.98560  Biso   1.000  C  0.080998
  C99      1.0000 0.34040  0.28210  0.96990  Biso   1.000  C  -0.217460
  C100     1.0000 0.33740  0.34620  0.96900  Biso   1.000  C  0.043376
  C101     1.0000 0.30820  0.95620  0.87040  Biso   1.000  C  0.038517
  C102     1.0000 0.30820  0.96040  0.80760  Biso   1.000  C  -0.210245
  C103     1.0000 0.23950  0.01030  0.79310  Biso   1.000  C  0.082233
  C104     1.0000 0.17360  0.05270  0.84370  Biso   1.000  C  -0.214800
  C105     1.0000 0.18001  0.04639  0.90479  Biso   1.000  C  0.050708
  C106     1.0000 0.31170  0.00570  0.60870  Biso   1.000  C  0.046614
  C107     1.0000 0.31430  0.00260  0.67000  Biso   1.000  C  -0.211074
  C108     1.0000 0.23800  0.01440  0.72600  Biso   1.000  C  0.080996
  C109     1.0000 0.15960  0.03010  0.71790  Biso   1.000  C  -0.217453
  C110     1.0000 0.16260  0.03100  0.65380  Biso   1.000  C  0.043371
  C111     1.0000 0.63480  0.54380  0.62960  Biso   1.000  C  0.040037
  C112     1.0000 0.57620  0.53960  0.69240  Biso   1.000  C  -0.209815
  C113     1.0000 0.54290  0.48970  0.70690  Biso   1.000  C  0.081334
  C114     1.0000 0.57000  0.44730  0.65630  Biso   1.000  C  -0.215333
  C115     1.0000 0.63119  0.45361  0.59521  Biso   1.000  C  0.050038
  C116     1.0000 0.42610  0.49430  0.89130  Biso   1.000  C  0.045260
  C117     1.0000 0.48690  0.49740  0.83000  Biso   1.000  C  -0.210596
  C118     1.0000 0.47840  0.48560  0.77400  Biso   1.000  C  0.081588
  C119     1.0000 0.40760  0.46990  0.78210  Biso   1.000  C  -0.219128
  C120     1.0000 0.34740  0.46900  0.84620  Biso   1.000  C  0.045087
  C121     1.0000 0.26440  0.04380  0.37040  Biso   1.000  C  0.040943
  C122     1.0000 0.26860  0.03960  0.30760  Biso   1.000  C  -0.212071
  C123     1.0000 0.24980  0.98970  0.29310  Biso   1.000  C  0.083624
  C124     1.0000 0.22630  0.94730  0.34370  Biso   1.000  C  -0.216597
  C125     1.0000 0.22640  0.95361  0.40479  Biso   1.000  C  0.050248
  C126     1.0000 0.31740  0.99430  0.10870  Biso   1.000  C  0.046841
  C127     1.0000 0.31690  0.99740  0.17000  Biso   1.000  C  -0.209860
  C128     1.0000 0.25240  0.98560  0.22600  Biso   1.000  C  0.079736
  C129     1.0000 0.18970  0.96990  0.21790  Biso   1.000  C  -0.219012
  C130     1.0000 0.19360  0.96900  0.15380  Biso   1.000  C  0.044191
  C131     1.0000 0.17860  0.45620  0.12960  Biso   1.000  C  0.040827
  C132     1.0000 0.11580  0.46040  0.19240  Biso   1.000  C  -0.209393
  C133     1.0000 0.03260  0.51030  0.20690  Biso   1.000  C  0.080950
  C134     1.0000 0.01730  0.55270  0.15630  Biso   1.000  C  -0.213598
  C135     1.0000 0.08480  0.54639  0.09521  Biso   1.000  C  0.049212
  C136     1.0000 0.92040  0.50570  0.39130  Biso   1.000  C  0.045873
  C137     1.0000 0.98430  0.50260  0.33000  Biso   1.000  C  -0.212428
  C138     1.0000 0.96400  0.51440  0.27400  Biso   1.000  C  0.080016
  C139     1.0000 0.87750  0.53010  0.28210  Biso   1.000  C  -0.216563
  C140     1.0000 0.81640  0.53100  0.34620  Biso   1.000  C  0.041984
  C141     1.0000 0.32140  0.87040  0.54380  Biso   1.000  C  0.040827
  C142     1.0000 0.38420  0.80760  0.53960  Biso   1.000  C  -0.209394
  C143     1.0000 0.46740  0.79310  0.48970  Biso   1.000  C  0.080944
  C144     1.0000 0.48270  0.84370  0.44730  Biso   1.000  C  -0.213547
  C145     1.0000 0.41520  0.90479  0.45361  Biso   1.000  C  0.049182
  C146     1.0000 0.57960  0.60870  0.49430  Biso   1.000  C  0.045880
  C147     1.0000 0.51570  0.67000  0.49740  Biso   1.000  C  -0.212459
  C148     1.0000 0.53600  0.72600  0.48560  Biso   1.000  C  0.080066
  C149     1.0000 0.62250  0.71790  0.46990  Biso   1.000  C  -0.216596
  C150     1.0000 0.68360  0.65380  0.46900  Biso   1.000  C  0.041997
  C151     1.0000 0.23560  0.62960  0.95620  Biso   1.000  C  0.040935
  C152     1.0000 0.23140  0.69240  0.96040  Biso   1.000  C  -0.212076
  C153     1.0000 0.25020  0.70690  0.01030  Biso   1.000  C  0.083647
  C154     1.0000 0.27370  0.65630  0.05270  Biso   1.000  C  -0.216654
  C155     1.0000 0.27360  0.59521  0.04639  Biso   1.000  C  0.050292
  C156     1.0000 0.18260  0.89130  0.00570  Biso   1.000  C  0.046841
  C157     1.0000 0.18310  0.83000  0.00260  Biso   1.000  C  -0.209860
  C158     1.0000 0.24760  0.77400  0.01440  Biso   1.000  C  0.079733
  C159     1.0000 0.31030  0.78210  0.03010  Biso   1.000  C  -0.219007
  C160     1.0000 0.30640  0.84620  0.03100  Biso   1.000  C  0.044193
  Cu1      1.0000 0.75996  0.99004  0.49004  Biso   1.000  Cu  0.334222
  Cu2      1.0000 0.74004  0.50996  0.00996  Biso   1.000  Cu  0.334241
  Cu3      1.0000 0.25000  0.49004  0.50996  Biso   1.000  Cu  0.352637
  Cu4      1.0000 0.75000  0.00996  0.99004  Biso   1.000  Cu  0.334309
  Cu5      1.0000 0.75000  0.50996  0.49004  Biso   1.000  Cu  0.333923
  Cu6      1.0000 0.25000  0.99004  0.00996  Biso   1.000  Cu  0.334380
  Cu7      1.0000 0.24004  0.00996  0.50996  Biso   1.000  Cu  0.333552
  Cu8      1.0000 0.25996  0.49004  0.99004  Biso   1.000  Cu  0.333574
  H1       1.0000 0.72400  0.92230  0.62010  Biso   1.000  H  0.084425
  H2       1.0000 0.71600  0.93030  0.72490  Biso   1.000  H  0.121189
  H3       1.0000 0.78940  0.08530  0.66330  Biso   1.000  H  0.122017
  H4       1.0000 0.78670  0.07680  0.56220  Biso   1.000  H  0.081179
  H5       1.0000 0.63760  0.99920  0.92840  Biso   1.000  H  0.081100
  H6       1.0000 0.64030  0.99240  0.82580  Biso   1.000  H  0.119463
  H7       1.0000 0.85350  0.03960  0.74580  Biso   1.000  H  0.124064
  H8       1.0000 0.84830  0.04110  0.85190  Biso   1.000  H  0.084800
  H9       1.0000 0.76640  0.57770  0.87990  Biso   1.000  H  0.083771
  H10      1.0000 0.87120  0.56970  0.77510  Biso   1.000  H  0.119874
  H11      1.0000 0.03800  0.41470  0.83670  Biso   1.000  H  0.120273
  H12      1.0000 0.92570  0.42320  0.93780  Biso   1.000  H  0.081159
  H13      1.0000 0.06520  0.50080  0.57160  Biso   1.000  H  0.082025
  H14      1.0000 0.95850  0.50760  0.67420  Biso   1.000  H  0.120976
  H15      1.0000 0.13890  0.46040  0.75420  Biso   1.000  H  0.123419
  H16      1.0000 0.24130  0.45890  0.64810  Biso   1.000  H  0.084424
  H17      1.0000 0.73360  0.12010  0.42230  Biso   1.000  H  0.083773
  H18      1.0000 0.62880  0.22490  0.43030  Biso   1.000  H  0.119874
  H19      1.0000 0.46200  0.16330  0.58530  Biso   1.000  H  0.120262
  H20      1.0000 0.57430  0.06220  0.57680  Biso   1.000  H  0.081161
  H21      1.0000 0.43480  0.42840  0.49920  Biso   1.000  H  0.082026
  H22      1.0000 0.54150  0.32580  0.49240  Biso   1.000  H  0.120978
  H23      1.0000 0.36110  0.24580  0.53960  Biso   1.000  H  0.123420
  H24      1.0000 0.25870  0.35190  0.54110  Biso   1.000  H  0.084422
  H25      1.0000 0.77600  0.37990  0.07770  Biso   1.000  H  0.084436
  H26      1.0000 0.78400  0.27510  0.06970  Biso   1.000  H  0.121200
  H27      1.0000 0.71060  0.33670  0.91470  Biso   1.000  H  0.122027
  H28      1.0000 0.71330  0.43780  0.92320  Biso   1.000  H  0.081177
  H29      1.0000 0.86240  0.07160  0.00080  Biso   1.000  H  0.081100
  H30      1.0000 0.85970  0.17420  0.00760  Biso   1.000  H  0.119463
  H31      1.0000 0.64650  0.25420  0.96040  Biso   1.000  H  0.124062
  H32      1.0000 0.65170  0.14810  0.95890  Biso   1.000  H  0.084800
  H33      1.0000 0.15590  0.62010  0.57770  Biso   1.000  H  0.084143
  H34      1.0000 0.05910  0.72490  0.56970  Biso   1.000  H  0.120515
  H35      1.0000 0.04730  0.66330  0.41470  Biso   1.000  H  0.121691
  H36      1.0000 0.15110  0.56220  0.42320  Biso   1.000  H  0.081457
  H37      1.0000 0.93400  0.92840  0.50080  Biso   1.000  H  0.082050
  H38      1.0000 0.03390  0.82580  0.50760  Biso   1.000  H  0.119754
  H39      1.0000 0.90070  0.74580  0.46040  Biso   1.000  H  0.123605
  H40      1.0000 0.79980  0.85190  0.45890  Biso   1.000  H  0.083698
  H41      1.0000 0.85370  0.87990  0.92230  Biso   1.000  H  0.084628
  H42      1.0000 0.85370  0.77510  0.93030  Biso   1.000  H  0.120417
  H43      1.0000 0.62530  0.83670  0.08530  Biso   1.000  H  0.121275
  H44      1.0000 0.63650  0.93780  0.07680  Biso   1.000  H  0.080315
  H45      1.0000 0.86320  0.57160  0.99920  Biso   1.000  H  0.081383
  H46      1.0000 0.86730  0.67420  0.99240  Biso   1.000  H  0.119639
  H47      1.0000 0.60690  0.75420  0.03960  Biso   1.000  H  0.122971
  H48      1.0000 0.61060  0.64810  0.04110  Biso   1.000  H  0.084565
  H49      1.0000 0.64630  0.07770  0.12010  Biso   1.000  H  0.084626
  H50      1.0000 0.64630  0.06970  0.22490  Biso   1.000  H  0.120417
  H51      1.0000 0.87470  0.91470  0.16330  Biso   1.000  H  0.121272
  H52      1.0000 0.86350  0.92320  0.06220  Biso   1.000  H  0.080315
  H53      1.0000 0.63680  0.00080  0.42840  Biso   1.000  H  0.081388
  H54      1.0000 0.63270  0.00760  0.32580  Biso   1.000  H  0.119638
  H55      1.0000 0.89310  0.96040  0.24580  Biso   1.000  H  0.122968
  H56      1.0000 0.88940  0.95890  0.35190  Biso   1.000  H  0.084564
  H57      1.0000 0.34410  0.42230  0.37990  Biso   1.000  H  0.084141
  H58      1.0000 0.44090  0.43030  0.27510  Biso   1.000  H  0.120512
  H59      1.0000 0.45270  0.58530  0.33670  Biso   1.000  H  0.121693
  H60      1.0000 0.34890  0.57680  0.43780  Biso   1.000  H  0.081454
  H61      1.0000 0.56600  0.49920  0.07160  Biso   1.000  H  0.082049
  H62      1.0000 0.46610  0.49240  0.17420  Biso   1.000  H  0.119755
  H63      1.0000 0.59930  0.53960  0.25420  Biso   1.000  H  0.123605
  H64      1.0000 0.70020  0.54110  0.14810  Biso   1.000  H  0.083698
  H65      1.0000 0.84410  0.37990  0.42230  Biso   1.000  H  0.084110
  H66      1.0000 0.94090  0.27510  0.43030  Biso   1.000  H  0.120399
  H67      1.0000 0.95270  0.33670  0.58530  Biso   1.000  H  0.121611
  H68      1.0000 0.84890  0.43780  0.57680  Biso   1.000  H  0.081378
  H69      1.0000 0.06600  0.07160  0.49920  Biso   1.000  H  0.082173
  H70      1.0000 0.96610  0.17420  0.49240  Biso   1.000  H  0.119863
  H71      1.0000 0.09930  0.25420  0.53960  Biso   1.000  H  0.123643
  H72      1.0000 0.20020  0.14810  0.54110  Biso   1.000  H  0.083822
  H73      1.0000 0.14630  0.12010  0.07770  Biso   1.000  H  0.084629
  H74      1.0000 0.14630  0.22490  0.06970  Biso   1.000  H  0.120396
  H75      1.0000 0.37470  0.16330  0.91470  Biso   1.000  H  0.121274
  H76      1.0000 0.36350  0.06220  0.92320  Biso   1.000  H  0.080320
  H77      1.0000 0.13680  0.42840  0.00080  Biso   1.000  H  0.081342
  H78      1.0000 0.13270  0.32580  0.00760  Biso   1.000  H  0.119668
  H79      1.0000 0.39310  0.24580  0.96040  Biso   1.000  H  0.122959
  H80      1.0000 0.38940  0.35190  0.95890  Biso   1.000  H  0.084507
  H81      1.0000 0.35370  0.92230  0.87990  Biso   1.000  H  0.084626
  H82      1.0000 0.35370  0.93030  0.77510  Biso   1.000  H  0.120397
  H83      1.0000 0.12530  0.08530  0.83670  Biso   1.000  H  0.121271
  H84      1.0000 0.13650  0.07680  0.93780  Biso   1.000  H  0.080320
  H85      1.0000 0.36320  0.99920  0.57160  Biso   1.000  H  0.081346
  H86      1.0000 0.36730  0.99240  0.67420  Biso   1.000  H  0.119667
  H87      1.0000 0.10690  0.03960  0.75420  Biso   1.000  H  0.122957
  H88      1.0000 0.11060  0.04110  0.64810  Biso   1.000  H  0.084506
  H89      1.0000 0.65590  0.57770  0.62010  Biso   1.000  H  0.084108
  H90      1.0000 0.55910  0.56970  0.72490  Biso   1.000  H  0.120395
  H91      1.0000 0.54730  0.41470  0.66330  Biso   1.000  H  0.121613
  H92      1.0000 0.65110  0.42320  0.56220  Biso   1.000  H  0.081376
  H93      1.0000 0.43400  0.50080  0.92840  Biso   1.000  H  0.082171
  H94      1.0000 0.53390  0.50760  0.82580  Biso   1.000  H  0.119864
  H95      1.0000 0.40070  0.46040  0.74580  Biso   1.000  H  0.123643
  H96      1.0000 0.29980  0.45890  0.85190  Biso   1.000  H  0.083822
  H97      1.0000 0.27600  0.07770  0.37990  Biso   1.000  H  0.084357
  H98      1.0000 0.28400  0.06970  0.27510  Biso   1.000  H  0.121173
  H99      1.0000 0.21060  0.91470  0.33670  Biso   1.000  H  0.122042
  H100     1.0000 0.21330  0.92320  0.43780  Biso   1.000  H  0.081126
  H101     1.0000 0.36240  0.00080  0.07160  Biso   1.000  H  0.081094
  H102     1.0000 0.35970  0.00760  0.17420  Biso   1.000  H  0.119442
  H103     1.0000 0.14650  0.96040  0.25420  Biso   1.000  H  0.124082
  H104     1.0000 0.15170  0.95890  0.14810  Biso   1.000  H  0.084804
  H105     1.0000 0.23360  0.42230  0.12010  Biso   1.000  H  0.083943
  H106     1.0000 0.12880  0.43030  0.22490  Biso   1.000  H  0.119961
  H107     1.0000 0.96200  0.58530  0.16330  Biso   1.000  H  0.120454
  H108     1.0000 0.07430  0.57680  0.06220  Biso   1.000  H  0.081305
  H109     1.0000 0.93480  0.49920  0.42840  Biso   1.000  H  0.081893
  H110     1.0000 0.04150  0.49240  0.32580  Biso   1.000  H  0.120694
  H111     1.0000 0.86110  0.53960  0.24580  Biso   1.000  H  0.123382
  H112     1.0000 0.75870  0.54110  0.35190  Biso   1.000  H  0.084380
  H113     1.0000 0.26640  0.87990  0.57770  Biso   1.000  H  0.083945
  H114     1.0000 0.37120  0.77510  0.56970  Biso   1.000  H  0.119961
  H115     1.0000 0.53800  0.83670  0.41470  Biso   1.000  H  0.120443
  H116     1.0000 0.42570  0.93780  0.42320  Biso   1.000  H  0.081307
  H117     1.0000 0.56520  0.57160  0.50080  Biso   1.000  H  0.081894
  H118     1.0000 0.45850  0.67420  0.50760  Biso   1.000  H  0.120696
  H119     1.0000 0.63890  0.75420  0.46040  Biso   1.000  H  0.123383
  H120     1.0000 0.74130  0.64810  0.45890  Biso   1.000  H  0.084378
  H121     1.0000 0.22400  0.62010  0.92230  Biso   1.000  H  0.084368
  H122     1.0000 0.21600  0.72490  0.93030  Biso   1.000  H  0.121183
  H123     1.0000 0.28940  0.66330  0.08530  Biso   1.000  H  0.122052
  H124     1.0000 0.28670  0.56220  0.07680  Biso   1.000  H  0.081125
  H125     1.0000 0.13760  0.92840  0.99920  Biso   1.000  H  0.081094
  H126     1.0000 0.14030  0.82580  0.99240  Biso   1.000  H  0.119442
  H127     1.0000 0.35350  0.74580  0.03960  Biso   1.000  H  0.124079
  H128     1.0000 0.34830  0.85190  0.04110  Biso   1.000  H  0.084804
  N1       1.0000 0.75596  0.99922  0.58126  Biso   1.000  N  -0.230430
  N2       1.0000 0.74481  0.01786  0.89992  Biso   1.000  N  -0.242292
  N3       1.0000 0.83644  0.50078  0.91874  Biso   1.000  N  -0.230565
  N4       1.0000 0.16259  0.48214  0.60008  Biso   1.000  N  -0.241005
  N5       1.0000 0.66356  0.08126  0.49922  Biso   1.000  N  -0.230569
  N6       1.0000 0.33741  0.39992  0.51786  Biso   1.000  N  -0.241020
  N7       1.0000 0.74404  0.41874  0.00078  Biso   1.000  N  -0.230462
  N8       1.0000 0.75519  0.10008  0.98214  Biso   1.000  N  -0.242291
  N9       1.0000 0.16278  0.58126  0.50078  Biso   1.000  N  -0.233216
  N10      1.0000 0.85527  0.89992  0.48214  Biso   1.000  N  -0.242003
  N11      1.0000 0.74482  0.91874  0.99922  Biso   1.000  N  -0.229408
  N12      1.0000 0.73733  0.60008  0.01786  Biso   1.000  N  -0.240406
  N13      1.0000 0.75518  0.00078  0.08126  Biso   1.000  N  -0.229412
  N14      1.0000 0.76267  0.98214  0.39992  Biso   1.000  N  -0.240395
  N15      1.0000 0.33722  0.49922  0.41874  Biso   1.000  N  -0.233229
  N16      1.0000 0.64473  0.51786  0.10008  Biso   1.000  N  -0.242006
  N17      1.0000 0.83722  0.41874  0.49922  Biso   1.000  N  -0.230801
  N18      1.0000 0.14473  0.10008  0.51786  Biso   1.000  N  -0.241454
  N19      1.0000 0.25518  0.08126  0.00078  Biso   1.000  N  -0.229421
  N20      1.0000 0.26267  0.39992  0.98214  Biso   1.000  N  -0.240729
  N21      1.0000 0.24482  0.99922  0.91874  Biso   1.000  N  -0.229424
  N22      1.0000 0.23733  0.01786  0.60008  Biso   1.000  N  -0.240716
  N23      1.0000 0.66278  0.50078  0.58126  Biso   1.000  N  -0.230814
  N24      1.0000 0.35527  0.48214  0.89992  Biso   1.000  N  -0.241459
  N25      1.0000 0.24404  0.00078  0.41874  Biso   1.000  N  -0.230708
  N26      1.0000 0.25519  0.98214  0.10008  Biso   1.000  N  -0.242310
  N27      1.0000 0.16356  0.49922  0.08126  Biso   1.000  N  -0.229834
  N28      1.0000 0.83741  0.51786  0.39992  Biso   1.000  N  -0.239193
  N29      1.0000 0.33644  0.91874  0.50078  Biso   1.000  N  -0.229837
  N30      1.0000 0.66259  0.60008  0.48214  Biso   1.000  N  -0.239208
  N31      1.0000 0.25596  0.58126  0.99922  Biso   1.000  N  -0.230741
  N32      1.0000 0.24481  0.89992  0.01786  Biso   1.000  N  -0.242310
