
##########################################################################
#               Crystallographic Information Format file
#               Produced by PyCifRW module
#
#  This is a CIF file.  CIF has been adopted by the International
#  Union of Crystallography as the standard for data archiving and
#  transmission.
#
#  For information on this file format, follow the CIF links at
#  http://www.iucr.org
##########################################################################

data_image0

_cell_length_a                          20.6362
_cell_length_b                          20.6362
_cell_length_c                          20.6362
_cell_angle_alpha                       120
_cell_angle_beta                        120
_cell_angle_gamma                       60
_symmetry_space_group_name_H-M          'P 1'
_symmetry_int_tables_number             1
loop_
  _symmetry_equiv_pos_as_xyz
         'x, y, z' 
loop_
  _atom_site_label
  _atom_site_occupancy
  _atom_site_fract_x
  _atom_site_fract_y
  _atom_site_fract_z
  _atom_site_thermal_displace_type
  _atom_site_B_iso_or_equiv
  _atom_site_type_symbol
  _atom_site_charge
         C1        1.0000    0.53312   0.46688   0.00000   Biso      1.000     C          -0.013902000000000001         
         C2        1.0000    0.00000   0.00000   0.46688   Biso      1.000     C          -0.014072           
         C3        1.0000    0.95260   0.49600   0.04740   Biso      1.000     C          -0.19539700000000002          
         C4        1.0000    0.53312   0.00000   0.53312   Biso      1.000     C          -0.013878999999999999         
         C5        1.0000    0.00000   0.46688   0.00000   Biso      1.000     C          -0.014094           
         C6        1.0000    0.46688   0.00000   0.00000   Biso      1.000     C          -0.014094           
         C7        1.0000    0.00000   0.46688   0.46688   Biso      1.000     C          -0.014094           
         C8        1.0000    0.00000   0.53312   0.53312   Biso      1.000     C          -0.014081           
         C9        1.0000    0.53312   0.00000   0.00000   Biso      1.000     C          -0.014081           
         C10       1.0000    0.00000   0.53312   0.00000   Biso      1.000     C          -0.014081           
         C11       1.0000    0.46688   0.00000   0.46688   Biso      1.000     C          -0.013866           
         C12       1.0000    0.46688   0.53312   0.00000   Biso      1.000     C          -0.013888999999999999         
         C13       1.0000    0.00000   0.00000   0.53312   Biso      1.000     C          -0.01406  
         C14       1.0000    0.92289   0.57711   0.42289   Biso      1.000     C          -0.117749           
         C15       1.0000    0.07711   0.42289   0.57711   Biso      1.000     C          -0.117749           
         C16       1.0000    0.87176   0.62824   0.37176   Biso      1.000     C          0.632865  
         C17       1.0000    0.62824   0.87176   0.12824   Biso      1.000     C          0.632933  
         C18       1.0000    0.92289   0.57711   0.07711   Biso      1.000     C          -0.117749           
         C19       1.0000    0.87176   0.62824   0.12824   Biso      1.000     C          0.632865  
         C20       1.0000    0.57711   0.92289   0.42289   Biso      1.000     C          -0.117559           
         C21       1.0000    0.62824   0.87176   0.37176   Biso      1.000     C          0.632919  
         C22       1.0000    0.57711   0.57711   0.07711   Biso      1.000     C          -0.117565           
         C23       1.0000    0.62824   0.62824   0.12824   Biso      1.000     C          0.6331359999999999  
         C24       1.0000    0.49600   0.59880   0.04740   Biso      1.000     C          -0.194981           
         C25       1.0000    0.95260   0.95260   0.40120   Biso      1.000     C          -0.194867           
         C26       1.0000    0.92289   0.92289   0.42289   Biso      1.000     C          -0.117744           
         C27       1.0000    0.87176   0.87176   0.37176   Biso      1.000     C          0.6326470000000001  
         C28       1.0000    0.95260   0.49600   0.40120   Biso      1.000     C          -0.195398           
         C29       1.0000    0.59880   0.95260   0.50400   Biso      1.000     C          -0.194443           
         C30       1.0000    0.57711   0.92289   0.07711   Biso      1.000     C          -0.11775  
         C31       1.0000    0.12824   0.37176   0.62824   Biso      1.000     C          0.632865  
         C32       1.0000    0.49600   0.95260   0.04740   Biso      1.000     C          -0.195392           
         C33       1.0000    0.37176   0.12824   0.87176   Biso      1.000     C          0.632933  
         C34       1.0000    0.50400   0.40120   0.95260   Biso      1.000     C          -0.19498  
         C35       1.0000    0.04740   0.04740   0.59880   Biso      1.000     C          -0.19486900000000001          
         C36       1.0000    0.42289   0.07711   0.92289   Biso      1.000     C          -0.11775  
         C37       1.0000    0.40120   0.04740   0.49600   Biso      1.000     C          -0.194444           
         C38       1.0000    0.50400   0.04740   0.95260   Biso      1.000     C          -0.195394           
         C39       1.0000    0.04740   0.50400   0.59880   Biso      1.000     C          -0.195399           
         C40       1.0000    0.12824   0.12824   0.62824   Biso      1.000     C          0.6326470000000001  
         C41       1.0000    0.04740   0.50400   0.95260   Biso      1.000     C          -0.195399           
         C42       1.0000    0.42289   0.07711   0.57711   Biso      1.000     C          -0.117559           
         C43       1.0000    0.07711   0.07711   0.57711   Biso      1.000     C          -0.117745           
         C44       1.0000    0.37176   0.37176   0.87176   Biso      1.000     C          0.6331359999999999  
         C45       1.0000    0.42289   0.42289   0.92289   Biso      1.000     C          -0.117565           
         C46       1.0000    0.37176   0.12824   0.62824   Biso      1.000     C          0.632919  
         C47       1.0000    0.12824   0.37176   0.87176   Biso      1.000     C          0.632865  
         C48       1.0000    0.07711   0.42289   0.92289   Biso      1.000     C          -0.117749           
         H1        1.0000    0.94300   0.46260   0.05700   Biso      1.000     H          0.12602   
         H2        1.0000    0.65140   0.94300   0.53740   Biso      1.000     H          0.126693  
         H3        1.0000    0.94300   0.94300   0.34860   Biso      1.000     H          0.126546  
         H4        1.0000    0.46260   0.65140   0.05700   Biso      1.000     H          0.126164  
         H5        1.0000    0.53740   0.05700   0.94300   Biso      1.000     H          0.126022  
         H6        1.0000    0.05700   0.53740   0.65140   Biso      1.000     H          0.126019  
         H7        1.0000    0.94300   0.46260   0.34860   Biso      1.000     H          0.126019  
         H8        1.0000    0.34860   0.05700   0.46260   Biso      1.000     H          0.126693  
         H9        1.0000    0.05700   0.05700   0.65140   Biso      1.000     H          0.126546  
         H10       1.0000    0.46260   0.94300   0.05700   Biso      1.000     H          0.126022  
         H11       1.0000    0.53740   0.34860   0.94300   Biso      1.000     H          0.126164  
         H12       1.0000    0.05700   0.53740   0.94300   Biso      1.000     H          0.12602   
         O1        1.0000    0.85316   0.59084   0.29716   Biso      1.000     O          -0.5204   
         O2        1.0000    0.85316   0.70284   0.14684   Biso      1.000     O          -0.530885           
         O3        1.0000    0.59084   0.85316   0.14684   Biso      1.000     O          -0.520452           
         O4        1.0000    0.85316   0.59084   0.14684   Biso      1.000     O          -0.5204   
         O5        1.0000    0.70284   0.85316   0.40916   Biso      1.000     O          -0.5179159999999999           
         O6        1.0000    0.59084   0.70284   0.14684   Biso      1.000     O          -0.519781           
         O7        1.0000    0.85316   0.85316   0.40916   Biso      1.000     O          -0.5315810000000001           
         O8        1.0000    0.70284   0.59084   0.14684   Biso      1.000     O          -0.532942           
         O9        1.0000    0.75000   0.75000   0.25000   Biso      1.000     O          -1.027094           
         O10       1.0000    0.85316   0.85316   0.29716   Biso      1.000     O          -0.518543           
         O11       1.0000    0.59084   0.85316   0.29716   Biso      1.000     O          -0.533648           
         O12       1.0000    0.14684   0.29716   0.59084   Biso      1.000     O          -0.530883           
         O13       1.0000    0.85316   0.70284   0.40916   Biso      1.000     O          -0.530883           
         O14       1.0000    0.29716   0.14684   0.59084   Biso      1.000     O          -0.5179159999999999           
         O15       1.0000    0.29716   0.40916   0.85316   Biso      1.000     O          -0.532942           
         O16       1.0000    0.14684   0.40916   0.85316   Biso      1.000     O          -0.5204   
         O17       1.0000    0.40916   0.14684   0.70284   Biso      1.000     O          -0.533648           
         O18       1.0000    0.14684   0.29716   0.85316   Biso      1.000     O          -0.530885           
         O19       1.0000    0.40916   0.14684   0.85316   Biso      1.000     O          -0.520452           
         O20       1.0000    0.14684   0.40916   0.70284   Biso      1.000     O          -0.5204   
         O21       1.0000    0.29716   0.14684   0.85316   Biso      1.000     O          -0.530928           
         O22       1.0000    0.40916   0.29716   0.85316   Biso      1.000     O          -0.519781           
         O23       1.0000    0.70284   0.85316   0.14684   Biso      1.000     O          -0.530928           
         O24       1.0000    0.25000   0.25000   0.75000   Biso      1.000     O          -1.027094           
         O25       1.0000    0.14684   0.14684   0.70284   Biso      1.000     O          -0.518543           
         O26       1.0000    0.14684   0.14684   0.59084   Biso      1.000     O          -0.5315810000000001           
         S1        1.0000    0.04740   0.40120   0.49600   Biso      1.000     S          0.156246  
         S2        1.0000    0.40120   0.04740   0.95260   Biso      1.000     S          0.15626400000000001           
         S3        1.0000    0.04740   0.40120   0.95260   Biso      1.000     S          0.156246  
         S4        1.0000    0.50400   0.04740   0.59880   Biso      1.000     S          0.154343  
         S5        1.0000    0.40120   0.50400   0.95260   Biso      1.000     S          0.15499100000000002           
         S6        1.0000    0.04740   0.04740   0.49600   Biso      1.000     S          0.155607  
         S7        1.0000    0.59880   0.95260   0.04740   Biso      1.000     S          0.156263  
         S8        1.0000    0.95260   0.95260   0.50400   Biso      1.000     S          0.155606  
         S9        1.0000    0.59880   0.49600   0.04740   Biso      1.000     S          0.15499300000000002           
         S10       1.0000    0.49600   0.95260   0.40120   Biso      1.000     S          0.154341  
         S11       1.0000    0.95260   0.59880   0.04740   Biso      1.000     S          0.156244  
         S12       1.0000    0.95260   0.59880   0.50400   Biso      1.000     S          0.156244  
         Zn1       1.0000    0.78839   0.78840   0.21161   Biso      1.000     Zn          0.9536620000000001  
         Zn2       1.0000    0.78839   0.63483   0.21161   Biso      1.000     Zn          0.950111  
         Zn3       1.0000    0.78839   0.78840   0.36518   Biso      1.000     Zn          0.95368   
         Zn4       1.0000    0.63482   0.78840   0.21161   Biso      1.000     Zn          0.950174  
         Zn5       1.0000    0.36518   0.21160   0.78839   Biso      1.000     Zn          0.950174  
         Zn6       1.0000    0.21161   0.21160   0.63482   Biso      1.000     Zn          0.95368   
         Zn7       1.0000    0.21161   0.36517   0.78839   Biso      1.000     Zn          0.950111  
         Zn8       1.0000    0.21161   0.21160   0.78839   Biso      1.000     Zn          0.9536620000000001 