data_image0
_cell_length_a       18.595
_cell_length_b       18.595
_cell_length_c       18.595
_cell_angle_alpha    90
_cell_angle_beta     90
_cell_angle_gamma    90

_symmetry_space_group_name_H-M    "P 1"
_symmetry_int_tables_number       1

loop_
  _symmetry_equiv_pos_as_xyz
  'x, y, z'

loop_
  _atom_site_label
  _atom_site_occupancy
  _atom_site_fract_x
  _atom_site_fract_y
  _atom_site_fract_z
  _atom_site_thermal_displace_type
  _atom_site_B_iso_or_equiv
  _atom_site_type_symbol
  _atom_site_charge
  C1       1.0000 0.66380  0.85150  0.14850  Biso   1.000  C  0.233604
  C2       1.0000 0.72770  0.81950  0.18050  Biso   1.000  C  0.063438
  C3       1.0000 0.33620  0.14850  0.14850  Biso   1.000  C  0.233576
  C4       1.0000 0.27230  0.18050  0.18050  Biso   1.000  C  0.063386
  C5       1.0000 0.33620  0.85150  0.85150  Biso   1.000  C  0.233578
  C6       1.0000 0.27230  0.81950  0.81950  Biso   1.000  C  0.063435
  C7       1.0000 0.66380  0.14850  0.85150  Biso   1.000  C  0.233568
  C8       1.0000 0.72770  0.18050  0.81950  Biso   1.000  C  0.063407
  C9       1.0000 0.14850  0.66380  0.85150  Biso   1.000  C  0.233570
  C10      1.0000 0.18050  0.72770  0.81950  Biso   1.000  C  0.063369
  C11      1.0000 0.14850  0.33620  0.14850  Biso   1.000  C  0.233583
  C12      1.0000 0.18050  0.27230  0.18050  Biso   1.000  C  0.063420
  C13      1.0000 0.85150  0.33620  0.85150  Biso   1.000  C  0.233569
  C14      1.0000 0.81950  0.27230  0.81950  Biso   1.000  C  0.063355
  C15      1.0000 0.85150  0.66380  0.14850  Biso   1.000  C  0.233589
  C16      1.0000 0.81950  0.72770  0.18050  Biso   1.000  C  0.063472
  C17      1.0000 0.85150  0.14850  0.66380  Biso   1.000  C  0.233566
  C18      1.0000 0.81950  0.18050  0.72770  Biso   1.000  C  0.063715
  C19      1.0000 0.14850  0.14850  0.33620  Biso   1.000  C  0.233561
  C20      1.0000 0.18050  0.18050  0.27230  Biso   1.000  C  0.063515
  C21      1.0000 0.85150  0.85150  0.33620  Biso   1.000  C  0.233479
  C22      1.0000 0.81950  0.81950  0.27230  Biso   1.000  C  0.063268
  C23      1.0000 0.14850  0.85150  0.66380  Biso   1.000  C  0.233600
  C24      1.0000 0.18050  0.81950  0.72770  Biso   1.000  C  0.063514
  C25      1.0000 0.85150  0.66380  0.85150  Biso   1.000  C  0.233581
  C26      1.0000 0.81950  0.72770  0.81950  Biso   1.000  C  0.063473
  C27      1.0000 0.14850  0.33620  0.85150  Biso   1.000  C  0.233565
  C28      1.0000 0.18050  0.27230  0.81950  Biso   1.000  C  0.063404
  C29      1.0000 0.85150  0.33620  0.14850  Biso   1.000  C  0.233556
  C30      1.0000 0.81950  0.27230  0.18050  Biso   1.000  C  0.063362
  C31      1.0000 0.14850  0.66380  0.14850  Biso   1.000  C  0.233582
  C32      1.0000 0.18050  0.72770  0.18050  Biso   1.000  C  0.063428
  C33      1.0000 0.66380  0.14850  0.14850  Biso   1.000  C  0.233556
  C34      1.0000 0.72770  0.18050  0.18050  Biso   1.000  C  0.063391
  C35      1.0000 0.33620  0.14850  0.85150  Biso   1.000  C  0.233570
  C36      1.0000 0.27230  0.18050  0.81950  Biso   1.000  C  0.063399
  C37      1.0000 0.33620  0.85150  0.14850  Biso   1.000  C  0.233560
  C38      1.0000 0.27230  0.81950  0.18050  Biso   1.000  C  0.063399
  C39      1.0000 0.66380  0.85150  0.85150  Biso   1.000  C  0.233593
  C40      1.0000 0.72770  0.81950  0.81950  Biso   1.000  C  0.063447
  C41      1.0000 0.14850  0.85150  0.33620  Biso   1.000  C  0.233593
  C42      1.0000 0.18050  0.81950  0.27230  Biso   1.000  C  0.063510
  C43      1.0000 0.14850  0.14850  0.66380  Biso   1.000  C  0.233547
  C44      1.0000 0.18050  0.18050  0.72770  Biso   1.000  C  0.063516
  C45      1.0000 0.85150  0.85150  0.66380  Biso   1.000  C  0.233471
  C46      1.0000 0.81950  0.81950  0.72770  Biso   1.000  C  0.063257
  C47      1.0000 0.85150  0.14850  0.33620  Biso   1.000  C  0.233560
  C48      1.0000 0.81950  0.18050  0.27230  Biso   1.000  C  0.063727
  C49      1.0000 0.75870  0.75870  0.14910  Biso   1.000  C  -0.141887
  C50      1.0000 0.24130  0.24130  0.14910  Biso   1.000  C  -0.141699
  C51      1.0000 0.24130  0.75870  0.85090  Biso   1.000  C  -0.141657
  C52      1.0000 0.75870  0.24130  0.85090  Biso   1.000  C  -0.141442
  C53      1.0000 0.14910  0.75870  0.75870  Biso   1.000  C  -0.141747
  C54      1.0000 0.14910  0.24130  0.24130  Biso   1.000  C  -0.141839
  C55      1.0000 0.85090  0.24130  0.75870  Biso   1.000  C  -0.141658
  C56      1.0000 0.85090  0.75870  0.24130  Biso   1.000  C  -0.141817
  C57      1.0000 0.75870  0.14910  0.75870  Biso   1.000  C  -0.141999
  C58      1.0000 0.24130  0.14910  0.24130  Biso   1.000  C  -0.141723
  C59      1.0000 0.75870  0.85090  0.24130  Biso   1.000  C  -0.141695
  C60      1.0000 0.24130  0.85090  0.75870  Biso   1.000  C  -0.141830
  C61      1.0000 0.75870  0.75870  0.85090  Biso   1.000  C  -0.141960
  C62      1.0000 0.24130  0.24130  0.85090  Biso   1.000  C  -0.141630
  C63      1.0000 0.75870  0.24130  0.14910  Biso   1.000  C  -0.141441
  C64      1.0000 0.24130  0.75870  0.14910  Biso   1.000  C  -0.141660
  C65      1.0000 0.75870  0.14910  0.24130  Biso   1.000  C  -0.141985
  C66      1.0000 0.24130  0.14910  0.75870  Biso   1.000  C  -0.141772
  C67      1.0000 0.24130  0.85090  0.24130  Biso   1.000  C  -0.141825
  C68      1.0000 0.75870  0.85090  0.75870  Biso   1.000  C  -0.141657
  C69      1.0000 0.14910  0.75870  0.24130  Biso   1.000  C  -0.141756
  C70      1.0000 0.14910  0.24130  0.75870  Biso   1.000  C  -0.141847
  C71      1.0000 0.85090  0.75870  0.75870  Biso   1.000  C  -0.141774
  C72      1.0000 0.85090  0.24130  0.24130  Biso   1.000  C  -0.141704
  Cl1      1.0000 0.50000  0.00000  0.00000  Biso   1.000  Cl  -0.530095
  Cl2      1.0000 0.00000  0.50000  0.00000  Biso   1.000  Cl  -0.530083
  Cl3      1.0000 0.00000  0.00000  0.50000  Biso   1.000  Cl  -0.529049
  Cu1      1.0000 0.50000  0.86307  0.00000  Biso   1.000  Cu  0.687253
  Cu2      1.0000 0.50000  0.13693  0.00000  Biso   1.000  Cu  0.687335
  Cu3      1.0000 0.00000  0.50000  0.86307  Biso   1.000  Cu  0.687259
  Cu4      1.0000 0.00000  0.50000  0.13693  Biso   1.000  Cu  0.687292
  Cu5      1.0000 0.86307  0.00000  0.50000  Biso   1.000  Cu  0.682145
  Cu6      1.0000 0.13693  0.00000  0.50000  Biso   1.000  Cu  0.685729
  Cu7      1.0000 0.86307  0.50000  0.00000  Biso   1.000  Cu  0.687272
  Cu8      1.0000 0.13693  0.50000  0.00000  Biso   1.000  Cu  0.687260
  Cu9      1.0000 0.50000  0.00000  0.13693  Biso   1.000  Cu  0.687264
  Cu10     1.0000 0.50000  0.00000  0.86307  Biso   1.000  Cu  0.687308
  Cu11     1.0000 0.00000  0.86307  0.50000  Biso   1.000  Cu  0.686990
  Cu12     1.0000 0.00000  0.13693  0.50000  Biso   1.000  Cu  0.686786
  H1       1.0000 0.73900  0.73900  0.10760  Biso   1.000  H  0.138509
  H2       1.0000 0.26100  0.26100  0.10760  Biso   1.000  H  0.138462
  H3       1.0000 0.26100  0.73900  0.89240  Biso   1.000  H  0.138473
  H4       1.0000 0.73900  0.26100  0.89240  Biso   1.000  H  0.138480
  H5       1.0000 0.10760  0.73900  0.73900  Biso   1.000  H  0.138505
  H6       1.0000 0.10760  0.26100  0.26100  Biso   1.000  H  0.138502
  H7       1.0000 0.89240  0.26100  0.73900  Biso   1.000  H  0.138510
  H8       1.0000 0.89240  0.73900  0.26100  Biso   1.000  H  0.138443
  H9       1.0000 0.73900  0.10760  0.73900  Biso   1.000  H  0.138453
  H10      1.0000 0.26100  0.10760  0.26100  Biso   1.000  H  0.138506
  H11      1.0000 0.73900  0.89240  0.26100  Biso   1.000  H  0.138476
  H12      1.0000 0.26100  0.89240  0.73900  Biso   1.000  H  0.138484
  H13      1.0000 0.73900  0.73900  0.89240  Biso   1.000  H  0.138487
  H14      1.0000 0.26100  0.26100  0.89240  Biso   1.000  H  0.138491
  H15      1.0000 0.73900  0.26100  0.10760  Biso   1.000  H  0.138476
  H16      1.0000 0.26100  0.73900  0.10760  Biso   1.000  H  0.138481
  H17      1.0000 0.73900  0.10760  0.26100  Biso   1.000  H  0.138456
  H18      1.0000 0.26100  0.10760  0.73900  Biso   1.000  H  0.138501
  H19      1.0000 0.26100  0.89240  0.26100  Biso   1.000  H  0.138475
  H20      1.0000 0.73900  0.89240  0.73900  Biso   1.000  H  0.138481
  H21      1.0000 0.10760  0.73900  0.26100  Biso   1.000  H  0.138523
  H22      1.0000 0.10760  0.26100  0.73900  Biso   1.000  H  0.138497
  H23      1.0000 0.89240  0.73900  0.73900  Biso   1.000  H  0.138452
  H24      1.0000 0.89240  0.26100  0.26100  Biso   1.000  H  0.138509
  N1       1.0000 0.57496  0.86991  0.07920  Biso   1.000  N  -0.048988
  N2       1.0000 0.63046  0.82530  0.08930  Biso   1.000  N  -0.195727
  N3       1.0000 0.42504  0.13009  0.07920  Biso   1.000  N  -0.049064
  N4       1.0000 0.36954  0.17470  0.08930  Biso   1.000  N  -0.195686
  N5       1.0000 0.42504  0.86991  0.92080  Biso   1.000  N  -0.049103
  N6       1.0000 0.36954  0.82530  0.91070  Biso   1.000  N  -0.195660
  N7       1.0000 0.57496  0.13009  0.92080  Biso   1.000  N  -0.048984
  N8       1.0000 0.63046  0.17470  0.91070  Biso   1.000  N  -0.195816
  N9       1.0000 0.07920  0.57496  0.86991  Biso   1.000  N  -0.049063
  N10      1.0000 0.08930  0.63046  0.82530  Biso   1.000  N  -0.195630
  N11      1.0000 0.07920  0.42504  0.13009  Biso   1.000  N  -0.048982
  N12      1.0000 0.08930  0.36954  0.17470  Biso   1.000  N  -0.195814
  N13      1.0000 0.92080  0.42504  0.86991  Biso   1.000  N  -0.048972
  N14      1.0000 0.91070  0.36954  0.82530  Biso   1.000  N  -0.195745
  N15      1.0000 0.92080  0.57496  0.13009  Biso   1.000  N  -0.049056
  N16      1.0000 0.91070  0.63046  0.17470  Biso   1.000  N  -0.195669
  N17      1.0000 0.86991  0.07920  0.57496  Biso   1.000  N  -0.049082
  N18      1.0000 0.82530  0.08930  0.63046  Biso   1.000  N  -0.196075
  N19      1.0000 0.13009  0.07920  0.42504  Biso   1.000  N  -0.048574
  N20      1.0000 0.17470  0.08930  0.36954  Biso   1.000  N  -0.196076
  N21      1.0000 0.86991  0.92080  0.42504  Biso   1.000  N  -0.048290
  N22      1.0000 0.82530  0.91070  0.36954  Biso   1.000  N  -0.195859
  N23      1.0000 0.13009  0.92080  0.57496  Biso   1.000  N  -0.048854
  N24      1.0000 0.17470  0.91070  0.63046  Biso   1.000  N  -0.195744
  N25      1.0000 0.86991  0.57496  0.92080  Biso   1.000  N  -0.049070
  N26      1.0000 0.82530  0.63046  0.91070  Biso   1.000  N  -0.195663
  N27      1.0000 0.13009  0.42504  0.92080  Biso   1.000  N  -0.048978
  N28      1.0000 0.17470  0.36954  0.91070  Biso   1.000  N  -0.195758
  N29      1.0000 0.86991  0.42504  0.07920  Biso   1.000  N  -0.048989
  N30      1.0000 0.82530  0.36954  0.08930  Biso   1.000  N  -0.195788
  N31      1.0000 0.13009  0.57496  0.07920  Biso   1.000  N  -0.049094
  N32      1.0000 0.17470  0.63046  0.08930  Biso   1.000  N  -0.195700
  N33      1.0000 0.57496  0.07920  0.13009  Biso   1.000  N  -0.048963
  N34      1.0000 0.63046  0.08930  0.17470  Biso   1.000  N  -0.195804
  N35      1.0000 0.42504  0.07920  0.86991  Biso   1.000  N  -0.049092
  N36      1.0000 0.36954  0.08930  0.82530  Biso   1.000  N  -0.195672
  N37      1.0000 0.42504  0.92080  0.13009  Biso   1.000  N  -0.049051
  N38      1.0000 0.36954  0.91070  0.17470  Biso   1.000  N  -0.195627
  N39      1.0000 0.57496  0.92080  0.86991  Biso   1.000  N  -0.048983
  N40      1.0000 0.63046  0.91070  0.82530  Biso   1.000  N  -0.195771
  N41      1.0000 0.07920  0.86991  0.42504  Biso   1.000  N  -0.048913
  N42      1.0000 0.08930  0.82530  0.36954  Biso   1.000  N  -0.196032
  N43      1.0000 0.07920  0.13009  0.57496  Biso   1.000  N  -0.049220
  N44      1.0000 0.08930  0.17470  0.63046  Biso   1.000  N  -0.195573
  N45      1.0000 0.92080  0.86991  0.57496  Biso   1.000  N  -0.049073
  N46      1.0000 0.91070  0.82530  0.63046  Biso   1.000  N  -0.195209
  N47      1.0000 0.92080  0.13009  0.42504  Biso   1.000  N  -0.048605
  N48      1.0000 0.91070  0.17470  0.36954  Biso   1.000  N  -0.196870
  N49      1.0000 0.42504  0.13009  0.92080  Biso   1.000  N  -0.048933
  N50      1.0000 0.36954  0.17470  0.91070  Biso   1.000  N  -0.195804
  N51      1.0000 0.57496  0.86991  0.92080  Biso   1.000  N  -0.049017
  N52      1.0000 0.63046  0.82530  0.91070  Biso   1.000  N  -0.195647
  N53      1.0000 0.57496  0.13009  0.07920  Biso   1.000  N  -0.048994
  N54      1.0000 0.63046  0.17470  0.08930  Biso   1.000  N  -0.195686
  N55      1.0000 0.42504  0.86991  0.07920  Biso   1.000  N  -0.048890
  N56      1.0000 0.36954  0.82530  0.08930  Biso   1.000  N  -0.195759
  N57      1.0000 0.92080  0.42504  0.13009  Biso   1.000  N  -0.048985
  N58      1.0000 0.91070  0.36954  0.17470  Biso   1.000  N  -0.195626
  N59      1.0000 0.92080  0.57496  0.86991  Biso   1.000  N  -0.048924
  N60      1.0000 0.91070  0.63046  0.82530  Biso   1.000  N  -0.195794
  N61      1.0000 0.07920  0.57496  0.13009  Biso   1.000  N  -0.048919
  N62      1.0000 0.08930  0.63046  0.17470  Biso   1.000  N  -0.195821
  N63      1.0000 0.07920  0.42504  0.86991  Biso   1.000  N  -0.049005
  N64      1.0000 0.08930  0.36954  0.82530  Biso   1.000  N  -0.195655
  N65      1.0000 0.13009  0.92080  0.42504  Biso   1.000  N  -0.048781
  N66      1.0000 0.17470  0.91070  0.36954  Biso   1.000  N  -0.195768
  N67      1.0000 0.86991  0.92080  0.57496  Biso   1.000  N  -0.048235
  N68      1.0000 0.82530  0.91070  0.63046  Biso   1.000  N  -0.195862
  N69      1.0000 0.13009  0.07920  0.57496  Biso   1.000  N  -0.048500
  N70      1.0000 0.17470  0.08930  0.63046  Biso   1.000  N  -0.196088
  N71      1.0000 0.86991  0.07920  0.42504  Biso   1.000  N  -0.049026
  N72      1.0000 0.82530  0.08930  0.36954  Biso   1.000  N  -0.196076
  N73      1.0000 0.13009  0.42504  0.07920  Biso   1.000  N  -0.048995
  N74      1.0000 0.17470  0.36954  0.08930  Biso   1.000  N  -0.195715
  N75      1.0000 0.86991  0.57496  0.07920  Biso   1.000  N  -0.048931
  N76      1.0000 0.82530  0.63046  0.08930  Biso   1.000  N  -0.195726
  N77      1.0000 0.13009  0.57496  0.92080  Biso   1.000  N  -0.048883
  N78      1.0000 0.17470  0.63046  0.91070  Biso   1.000  N  -0.195776
  N79      1.0000 0.86991  0.42504  0.92080  Biso   1.000  N  -0.049011
  N80      1.0000 0.82530  0.36954  0.91070  Biso   1.000  N  -0.195712
  N81      1.0000 0.42504  0.92080  0.86991  Biso   1.000  N  -0.048894
  N82      1.0000 0.36954  0.91070  0.82530  Biso   1.000  N  -0.195800
  N83      1.0000 0.57496  0.92080  0.13009  Biso   1.000  N  -0.049014
  N84      1.0000 0.63046  0.91070  0.17470  Biso   1.000  N  -0.195622
  N85      1.0000 0.57496  0.07920  0.86991  Biso   1.000  N  -0.048996
  N86      1.0000 0.63046  0.08930  0.82530  Biso   1.000  N  -0.195743
  N87      1.0000 0.42504  0.07920  0.13009  Biso   1.000  N  -0.048933
  N88      1.0000 0.36954  0.08930  0.17470  Biso   1.000  N  -0.195747
  N89      1.0000 0.92080  0.13009  0.57496  Biso   1.000  N  -0.048541
  N90      1.0000 0.91070  0.17470  0.63046  Biso   1.000  N  -0.196872
  N91      1.0000 0.92080  0.86991  0.42504  Biso   1.000  N  -0.049004
  N92      1.0000 0.91070  0.82530  0.36954  Biso   1.000  N  -0.195219
  N93      1.0000 0.07920  0.13009  0.42504  Biso   1.000  N  -0.049162
  N94      1.0000 0.08930  0.17470  0.36954  Biso   1.000  N  -0.195578
  N95      1.0000 0.07920  0.86991  0.57496  Biso   1.000  N  -0.048848
  N96      1.0000 0.08930  0.82530  0.63046  Biso   1.000  N  -0.196056
  O1       1.0000 0.50000  0.74360  0.00000  Biso   1.000  O  -0.163359
  O2       1.0000 0.50000  0.25640  0.00000  Biso   1.000  O  -0.163442
  O3       1.0000 0.00000  0.50000  0.74360  Biso   1.000  O  -0.163374
  O4       1.0000 0.00000  0.50000  0.25640  Biso   1.000  O  -0.163335
  O5       1.0000 0.74360  0.00000  0.50000  Biso   1.000  O  -0.158262
  O6       1.0000 0.25640  0.00000  0.50000  Biso   1.000  O  -0.162583
  O7       1.0000 0.74360  0.50000  0.00000  Biso   1.000  O  -0.163394
  O8       1.0000 0.25640  0.50000  0.00000  Biso   1.000  O  -0.163419
  O9       1.0000 0.50000  0.00000  0.25640  Biso   1.000  O  -0.163453
  O10      1.0000 0.50000  0.00000  0.74360  Biso   1.000  O  -0.163359
  O11      1.0000 0.00000  0.74360  0.50000  Biso   1.000  O  -0.163548
  O12      1.0000 0.00000  0.25640  0.50000  Biso   1.000  O  -0.162370
