data_image0
_cell_length_a       18.595
_cell_length_b       18.595
_cell_length_c       18.595
_cell_angle_alpha    90
_cell_angle_beta     90
_cell_angle_gamma    90

_symmetry_space_group_name_H-M    "P 1"
_symmetry_int_tables_number       1

loop_
  _symmetry_equiv_pos_as_xyz
  'x, y, z'

loop_
  _atom_site_label
  _atom_site_occupancy
  _atom_site_fract_x
  _atom_site_fract_y
  _atom_site_fract_z
  _atom_site_thermal_displace_type
  _atom_site_B_iso_or_equiv
  _atom_site_type_symbol
  _atom_site_charge
  C1       1.0000 0.66380  0.85150  0.14850  Biso   1.000  C  0.233625
  C2       1.0000 0.72770  0.81950  0.18050  Biso   1.000  C  0.063442
  C3       1.0000 0.33620  0.14850  0.14850  Biso   1.000  C  0.233621
  C4       1.0000 0.27230  0.18050  0.18050  Biso   1.000  C  0.063415
  C5       1.0000 0.33620  0.85150  0.85150  Biso   1.000  C  0.233620
  C6       1.0000 0.27230  0.81950  0.81950  Biso   1.000  C  0.063417
  C7       1.0000 0.66380  0.14850  0.85150  Biso   1.000  C  0.233620
  C8       1.0000 0.72770  0.18050  0.81950  Biso   1.000  C  0.063423
  C9       1.0000 0.14850  0.66380  0.85150  Biso   1.000  C  0.233616
  C10      1.0000 0.18050  0.72770  0.81950  Biso   1.000  C  0.063415
  C11      1.0000 0.14850  0.33620  0.14850  Biso   1.000  C  0.233626
  C12      1.0000 0.18050  0.27230  0.18050  Biso   1.000  C  0.063429
  C13      1.0000 0.85150  0.33620  0.85150  Biso   1.000  C  0.233624
  C14      1.0000 0.81950  0.27230  0.81950  Biso   1.000  C  0.063425
  C15      1.0000 0.85150  0.66380  0.14850  Biso   1.000  C  0.233621
  C16      1.0000 0.81950  0.72770  0.18050  Biso   1.000  C  0.063414
  C17      1.0000 0.85150  0.14850  0.66380  Biso   1.000  C  0.233621
  C18      1.0000 0.81950  0.18050  0.72770  Biso   1.000  C  0.063430
  C19      1.0000 0.14850  0.14850  0.33620  Biso   1.000  C  0.233621
  C20      1.0000 0.18050  0.18050  0.27230  Biso   1.000  C  0.063423
  C21      1.0000 0.85150  0.85150  0.33620  Biso   1.000  C  0.233606
  C22      1.0000 0.81950  0.81950  0.27230  Biso   1.000  C  0.063410
  C23      1.0000 0.14850  0.85150  0.66380  Biso   1.000  C  0.233623
  C24      1.0000 0.18050  0.81950  0.72770  Biso   1.000  C  0.063424
  C25      1.0000 0.85150  0.66380  0.85150  Biso   1.000  C  0.233613
  C26      1.0000 0.81950  0.72770  0.81950  Biso   1.000  C  0.063428
  C27      1.0000 0.14850  0.33620  0.85150  Biso   1.000  C  0.233610
  C28      1.0000 0.18050  0.27230  0.81950  Biso   1.000  C  0.063407
  C29      1.0000 0.85150  0.33620  0.14850  Biso   1.000  C  0.233611
  C30      1.0000 0.81950  0.27230  0.18050  Biso   1.000  C  0.063417
  C31      1.0000 0.14850  0.66380  0.14850  Biso   1.000  C  0.233615
  C32      1.0000 0.18050  0.72770  0.18050  Biso   1.000  C  0.063432
  C33      1.0000 0.66380  0.14850  0.14850  Biso   1.000  C  0.233605
  C34      1.0000 0.72770  0.18050  0.18050  Biso   1.000  C  0.063406
  C35      1.0000 0.33620  0.14850  0.85150  Biso   1.000  C  0.233614
  C36      1.0000 0.27230  0.18050  0.81950  Biso   1.000  C  0.063439
  C37      1.0000 0.33620  0.85150  0.14850  Biso   1.000  C  0.233617
  C38      1.0000 0.27230  0.81950  0.18050  Biso   1.000  C  0.063419
  C39      1.0000 0.66380  0.85150  0.85150  Biso   1.000  C  0.233604
  C40      1.0000 0.72770  0.81950  0.81950  Biso   1.000  C  0.063410
  C41      1.0000 0.14850  0.85150  0.33620  Biso   1.000  C  0.233608
  C42      1.0000 0.18050  0.81950  0.27230  Biso   1.000  C  0.063415
  C43      1.0000 0.14850  0.14850  0.66380  Biso   1.000  C  0.233610
  C44      1.0000 0.18050  0.18050  0.72770  Biso   1.000  C  0.063410
  C45      1.0000 0.85150  0.85150  0.66380  Biso   1.000  C  0.233597
  C46      1.0000 0.81950  0.81950  0.72770  Biso   1.000  C  0.063413
  C47      1.0000 0.85150  0.14850  0.33620  Biso   1.000  C  0.233612
  C48      1.0000 0.81950  0.18050  0.27230  Biso   1.000  C  0.063435
  C49      1.0000 0.75870  0.75870  0.14910  Biso   1.000  C  -0.141752
  C50      1.0000 0.24130  0.24130  0.14910  Biso   1.000  C  -0.141732
  C51      1.0000 0.24130  0.75870  0.85090  Biso   1.000  C  -0.141726
  C52      1.0000 0.75870  0.24130  0.85090  Biso   1.000  C  -0.141724
  C53      1.0000 0.14910  0.75870  0.75870  Biso   1.000  C  -0.141758
  C54      1.0000 0.14910  0.24130  0.24130  Biso   1.000  C  -0.141738
  C55      1.0000 0.85090  0.24130  0.75870  Biso   1.000  C  -0.141744
  C56      1.0000 0.85090  0.75870  0.24130  Biso   1.000  C  -0.141715
  C57      1.0000 0.75870  0.14910  0.75870  Biso   1.000  C  -0.141727
  C58      1.0000 0.24130  0.14910  0.24130  Biso   1.000  C  -0.141739
  C59      1.0000 0.75870  0.85090  0.24130  Biso   1.000  C  -0.141763
  C60      1.0000 0.24130  0.85090  0.75870  Biso   1.000  C  -0.141729
  C61      1.0000 0.75870  0.75870  0.85090  Biso   1.000  C  -0.141756
  C62      1.0000 0.24130  0.24130  0.85090  Biso   1.000  C  -0.141745
  C63      1.0000 0.75870  0.24130  0.14910  Biso   1.000  C  -0.141731
  C64      1.0000 0.24130  0.75870  0.14910  Biso   1.000  C  -0.141747
  C65      1.0000 0.75870  0.14910  0.24130  Biso   1.000  C  -0.141744
  C66      1.0000 0.24130  0.14910  0.75870  Biso   1.000  C  -0.141768
  C67      1.0000 0.24130  0.85090  0.24130  Biso   1.000  C  -0.141725
  C68      1.0000 0.75870  0.85090  0.75870  Biso   1.000  C  -0.141746
  C69      1.0000 0.14910  0.75870  0.24130  Biso   1.000  C  -0.141756
  C70      1.0000 0.14910  0.24130  0.75870  Biso   1.000  C  -0.141709
  C71      1.0000 0.85090  0.75870  0.75870  Biso   1.000  C  -0.141746
  C72      1.0000 0.85090  0.24130  0.24130  Biso   1.000  C  -0.141762
  Cl1      1.0000 0.50000  0.00000  0.00000  Biso   1.000  Cl  -0.530115
  Cl2      1.0000 0.00000  0.50000  0.00000  Biso   1.000  Cl  -0.530112
  Cl3      1.0000 0.00000  0.00000  0.50000  Biso   1.000  Cl  -0.530110
  Cu1      1.0000 0.50000  0.86307  0.00000  Biso   1.000  Cu  0.687353
  Cu2      1.0000 0.50000  0.13693  0.00000  Biso   1.000  Cu  0.687307
  Cu3      1.0000 0.00000  0.50000  0.86307  Biso   1.000  Cu  0.687246
  Cu4      1.0000 0.00000  0.50000  0.13693  Biso   1.000  Cu  0.687294
  Cu5      1.0000 0.86307  0.00000  0.50000  Biso   1.000  Cu  0.687263
  Cu6      1.0000 0.13693  0.00000  0.50000  Biso   1.000  Cu  0.687272
  Cu7      1.0000 0.86307  0.50000  0.00000  Biso   1.000  Cu  0.687301
  Cu8      1.0000 0.13693  0.50000  0.00000  Biso   1.000  Cu  0.687240
  Cu9      1.0000 0.50000  0.00000  0.13693  Biso   1.000  Cu  0.687211
  Cu10     1.0000 0.50000  0.00000  0.86307  Biso   1.000  Cu  0.687207
  Cu11     1.0000 0.00000  0.86307  0.50000  Biso   1.000  Cu  0.687237
  Cu12     1.0000 0.00000  0.13693  0.50000  Biso   1.000  Cu  0.687290
  H1       1.0000 0.73900  0.73900  0.10760  Biso   1.000  H  0.138517
  H2       1.0000 0.26100  0.26100  0.10760  Biso   1.000  H  0.138506
  H3       1.0000 0.26100  0.73900  0.89240  Biso   1.000  H  0.138504
  H4       1.0000 0.73900  0.26100  0.89240  Biso   1.000  H  0.138507
  H5       1.0000 0.10760  0.73900  0.73900  Biso   1.000  H  0.138503
  H6       1.0000 0.10760  0.26100  0.26100  Biso   1.000  H  0.138509
  H7       1.0000 0.89240  0.26100  0.73900  Biso   1.000  H  0.138505
  H8       1.0000 0.89240  0.73900  0.26100  Biso   1.000  H  0.138509
  H9       1.0000 0.73900  0.10760  0.73900  Biso   1.000  H  0.138506
  H10      1.0000 0.26100  0.10760  0.26100  Biso   1.000  H  0.138515
  H11      1.0000 0.73900  0.89240  0.26100  Biso   1.000  H  0.138508
  H12      1.0000 0.26100  0.89240  0.73900  Biso   1.000  H  0.138507
  H13      1.0000 0.73900  0.73900  0.89240  Biso   1.000  H  0.138504
  H14      1.0000 0.26100  0.26100  0.89240  Biso   1.000  H  0.138508
  H15      1.0000 0.73900  0.26100  0.10760  Biso   1.000  H  0.138507
  H16      1.0000 0.26100  0.73900  0.10760  Biso   1.000  H  0.138511
  H17      1.0000 0.73900  0.10760  0.26100  Biso   1.000  H  0.138511
  H18      1.0000 0.26100  0.10760  0.73900  Biso   1.000  H  0.138505
  H19      1.0000 0.26100  0.89240  0.26100  Biso   1.000  H  0.138508
  H20      1.0000 0.73900  0.89240  0.73900  Biso   1.000  H  0.138500
  H21      1.0000 0.10760  0.73900  0.26100  Biso   1.000  H  0.138510
  H22      1.0000 0.10760  0.26100  0.73900  Biso   1.000  H  0.138504
  H23      1.0000 0.89240  0.73900  0.73900  Biso   1.000  H  0.138507
  H24      1.0000 0.89240  0.26100  0.26100  Biso   1.000  H  0.138514
  N1       1.0000 0.57496  0.86991  0.07920  Biso   1.000  N  -0.049059
  N2       1.0000 0.63046  0.82530  0.08930  Biso   1.000  N  -0.195748
  N3       1.0000 0.42504  0.13009  0.07920  Biso   1.000  N  -0.049034
  N4       1.0000 0.36954  0.17470  0.08930  Biso   1.000  N  -0.195705
  N5       1.0000 0.42504  0.86991  0.92080  Biso   1.000  N  -0.049050
  N6       1.0000 0.36954  0.82530  0.91070  Biso   1.000  N  -0.195711
  N7       1.0000 0.57496  0.13009  0.92080  Biso   1.000  N  -0.049034
  N8       1.0000 0.63046  0.17470  0.91070  Biso   1.000  N  -0.195756
  N9       1.0000 0.07920  0.57496  0.86991  Biso   1.000  N  -0.049011
  N10      1.0000 0.08930  0.63046  0.82530  Biso   1.000  N  -0.195726
  N11      1.0000 0.07920  0.42504  0.13009  Biso   1.000  N  -0.049038
  N12      1.0000 0.08930  0.36954  0.17470  Biso   1.000  N  -0.195741
  N13      1.0000 0.92080  0.42504  0.86991  Biso   1.000  N  -0.049031
  N14      1.0000 0.91070  0.36954  0.82530  Biso   1.000  N  -0.195740
  N15      1.0000 0.92080  0.57496  0.13009  Biso   1.000  N  -0.049017
  N16      1.0000 0.91070  0.63046  0.17470  Biso   1.000  N  -0.195720
  N17      1.0000 0.86991  0.07920  0.57496  Biso   1.000  N  -0.048988
  N18      1.0000 0.82530  0.08930  0.63046  Biso   1.000  N  -0.195800
  N19      1.0000 0.13009  0.07920  0.42504  Biso   1.000  N  -0.049083
  N20      1.0000 0.17470  0.08930  0.36954  Biso   1.000  N  -0.195681
  N21      1.0000 0.86991  0.92080  0.42504  Biso   1.000  N  -0.049053
  N22      1.0000 0.82530  0.91070  0.36954  Biso   1.000  N  -0.195661
  N23      1.0000 0.13009  0.92080  0.57496  Biso   1.000  N  -0.048990
  N24      1.0000 0.17470  0.91070  0.63046  Biso   1.000  N  -0.195784
  N25      1.0000 0.86991  0.57496  0.92080  Biso   1.000  N  -0.049028
  N26      1.0000 0.82530  0.63046  0.91070  Biso   1.000  N  -0.195748
  N27      1.0000 0.13009  0.42504  0.92080  Biso   1.000  N  -0.049019
  N28      1.0000 0.17470  0.36954  0.91070  Biso   1.000  N  -0.195702
  N29      1.0000 0.86991  0.42504  0.07920  Biso   1.000  N  -0.049034
  N30      1.0000 0.82530  0.36954  0.08930  Biso   1.000  N  -0.195701
  N31      1.0000 0.13009  0.57496  0.07920  Biso   1.000  N  -0.049013
  N32      1.0000 0.17470  0.63046  0.08930  Biso   1.000  N  -0.195751
  N33      1.0000 0.57496  0.07920  0.13009  Biso   1.000  N  -0.049004
  N34      1.0000 0.63046  0.08930  0.17470  Biso   1.000  N  -0.195706
  N35      1.0000 0.42504  0.07920  0.86991  Biso   1.000  N  -0.049020
  N36      1.0000 0.36954  0.08930  0.82530  Biso   1.000  N  -0.195756
  N37      1.0000 0.42504  0.92080  0.13009  Biso   1.000  N  -0.049010
  N38      1.0000 0.36954  0.91070  0.17470  Biso   1.000  N  -0.195740
  N39      1.0000 0.57496  0.92080  0.86991  Biso   1.000  N  -0.049006
  N40      1.0000 0.63046  0.91070  0.82530  Biso   1.000  N  -0.195703
  N41      1.0000 0.07920  0.86991  0.42504  Biso   1.000  N  -0.049068
  N42      1.0000 0.08930  0.82530  0.36954  Biso   1.000  N  -0.195683
  N43      1.0000 0.07920  0.13009  0.57496  Biso   1.000  N  -0.048976
  N44      1.0000 0.08930  0.17470  0.63046  Biso   1.000  N  -0.195779
  N45      1.0000 0.92080  0.86991  0.57496  Biso   1.000  N  -0.048981
  N46      1.0000 0.91070  0.82530  0.63046  Biso   1.000  N  -0.195740
  N47      1.0000 0.92080  0.13009  0.42504  Biso   1.000  N  -0.049073
  N48      1.0000 0.91070  0.17470  0.36954  Biso   1.000  N  -0.195712
  N49      1.0000 0.42504  0.13009  0.92080  Biso   1.000  N  -0.048970
  N50      1.0000 0.36954  0.17470  0.91070  Biso   1.000  N  -0.195761
  N51      1.0000 0.57496  0.86991  0.92080  Biso   1.000  N  -0.048964
  N52      1.0000 0.63046  0.82530  0.91070  Biso   1.000  N  -0.195708
  N53      1.0000 0.57496  0.13009  0.07920  Biso   1.000  N  -0.048970
  N54      1.0000 0.63046  0.17470  0.08930  Biso   1.000  N  -0.195711
  N55      1.0000 0.42504  0.86991  0.07920  Biso   1.000  N  -0.048974
  N56      1.0000 0.36954  0.82530  0.08930  Biso   1.000  N  -0.195750
  N57      1.0000 0.92080  0.42504  0.13009  Biso   1.000  N  -0.048952
  N58      1.0000 0.91070  0.36954  0.17470  Biso   1.000  N  -0.195726
  N59      1.0000 0.92080  0.57496  0.86991  Biso   1.000  N  -0.048971
  N60      1.0000 0.91070  0.63046  0.82530  Biso   1.000  N  -0.195736
  N61      1.0000 0.07920  0.57496  0.13009  Biso   1.000  N  -0.048972
  N62      1.0000 0.08930  0.63046  0.17470  Biso   1.000  N  -0.195750
  N63      1.0000 0.07920  0.42504  0.86991  Biso   1.000  N  -0.048948
  N64      1.0000 0.08930  0.36954  0.82530  Biso   1.000  N  -0.195724
  N65      1.0000 0.13009  0.92080  0.42504  Biso   1.000  N  -0.048912
  N66      1.0000 0.17470  0.91070  0.36954  Biso   1.000  N  -0.195793
  N67      1.0000 0.86991  0.92080  0.57496  Biso   1.000  N  -0.048991
  N68      1.0000 0.82530  0.91070  0.63046  Biso   1.000  N  -0.195668
  N69      1.0000 0.13009  0.07920  0.57496  Biso   1.000  N  -0.049008
  N70      1.0000 0.17470  0.08930  0.63046  Biso   1.000  N  -0.195685
  N71      1.0000 0.86991  0.07920  0.42504  Biso   1.000  N  -0.048924
  N72      1.0000 0.82530  0.08930  0.36954  Biso   1.000  N  -0.195805
  N73      1.0000 0.13009  0.42504  0.07920  Biso   1.000  N  -0.048953
  N74      1.0000 0.17470  0.36954  0.08930  Biso   1.000  N  -0.195766
  N75      1.0000 0.86991  0.57496  0.07920  Biso   1.000  N  -0.048974
  N76      1.0000 0.82530  0.63046  0.08930  Biso   1.000  N  -0.195706
  N77      1.0000 0.13009  0.57496  0.92080  Biso   1.000  N  -0.048956
  N78      1.0000 0.17470  0.63046  0.91070  Biso   1.000  N  -0.195715
  N79      1.0000 0.86991  0.42504  0.92080  Biso   1.000  N  -0.048966
  N80      1.0000 0.82530  0.36954  0.91070  Biso   1.000  N  -0.195757
  N81      1.0000 0.42504  0.92080  0.86991  Biso   1.000  N  -0.048942
  N82      1.0000 0.36954  0.91070  0.82530  Biso   1.000  N  -0.195713
  N83      1.0000 0.57496  0.92080  0.13009  Biso   1.000  N  -0.048948
  N84      1.0000 0.63046  0.91070  0.17470  Biso   1.000  N  -0.195756
  N85      1.0000 0.57496  0.07920  0.86991  Biso   1.000  N  -0.048955
  N86      1.0000 0.63046  0.08930  0.82530  Biso   1.000  N  -0.195759
  N87      1.0000 0.42504  0.07920  0.13009  Biso   1.000  N  -0.048944
  N88      1.0000 0.36954  0.08930  0.17470  Biso   1.000  N  -0.195726
  N89      1.0000 0.92080  0.13009  0.57496  Biso   1.000  N  -0.049011
  N90      1.0000 0.91070  0.17470  0.63046  Biso   1.000  N  -0.195726
  N91      1.0000 0.92080  0.86991  0.42504  Biso   1.000  N  -0.048915
  N92      1.0000 0.91070  0.82530  0.36954  Biso   1.000  N  -0.195749
  N93      1.0000 0.07920  0.13009  0.42504  Biso   1.000  N  -0.048911
  N94      1.0000 0.08930  0.17470  0.36954  Biso   1.000  N  -0.195790
  N95      1.0000 0.07920  0.86991  0.57496  Biso   1.000  N  -0.049004
  N96      1.0000 0.08930  0.82530  0.63046  Biso   1.000  N  -0.195693
  O1       1.0000 0.50000  0.74360  0.00000  Biso   1.000  O  -0.163464
  O2       1.0000 0.50000  0.25640  0.00000  Biso   1.000  O  -0.163468
  O3       1.0000 0.00000  0.50000  0.74360  Biso   1.000  O  -0.163417
  O4       1.0000 0.00000  0.50000  0.25640  Biso   1.000  O  -0.163447
  O5       1.0000 0.74360  0.00000  0.50000  Biso   1.000  O  -0.163448
  O6       1.0000 0.25640  0.00000  0.50000  Biso   1.000  O  -0.163420
  O7       1.0000 0.74360  0.50000  0.00000  Biso   1.000  O  -0.163477
  O8       1.0000 0.25640  0.50000  0.00000  Biso   1.000  O  -0.163455
  O9       1.0000 0.50000  0.00000  0.25640  Biso   1.000  O  -0.163430
  O10      1.0000 0.50000  0.00000  0.74360  Biso   1.000  O  -0.163434
  O11      1.0000 0.00000  0.74360  0.50000  Biso   1.000  O  -0.163433
  O12      1.0000 0.00000  0.25640  0.50000  Biso   1.000  O  -0.163432
