data_image0
_cell_length_a       6.9472
_cell_length_b       8.1805
_cell_length_c       12.1722
_cell_angle_alpha    91.1412
_cell_angle_beta     103.873
_cell_angle_gamma    104.55

_symmetry_space_group_name_H-M    "P 1"
_symmetry_int_tables_number       1

loop_
  _symmetry_equiv_pos_as_xyz
  'x, y, z'

loop_
  _atom_site_label
  _atom_site_occupancy
  _atom_site_fract_x
  _atom_site_fract_y
  _atom_site_fract_z
  _atom_site_thermal_displace_type
  _atom_site_B_iso_or_equiv
  _atom_site_type_symbol
  _atom_site_charge
  C1       1.0000 0.86069  0.77285  0.72099  Biso   1.000  C  -0.094166
  C2       1.0000 0.88479  0.66915  0.54150  Biso   1.000  C  -0.092798
  C3       1.0000 0.67578  0.60825  0.71950  Biso   1.000  C  -0.093650
  C4       1.0000 0.48476  0.68838  0.55285  Biso   1.000  C  -0.128136
  C5       1.0000 0.69460  0.50680  0.53767  Biso   1.000  C  -0.075477
  C6       1.0000 0.67234  0.85001  0.55213  Biso   1.000  C  -0.082287
  C7       1.0000 0.98597  0.23076  0.41202  Biso   1.000  C  0.550742
  C8       1.0000 0.49610  0.05281  0.72187  Biso   1.000  C  0.486837
  C9       1.0000 0.88347  0.23020  0.28517  Biso   1.000  C  -0.013051
  C10      1.0000 0.90907  0.37886  0.22773  Biso   1.000  C  -0.118587
  C11      1.0000 0.84467  0.37279  0.10766  Biso   1.000  C  -0.120291
  C12      1.0000 0.75552  0.21714  0.03955  Biso   1.000  C  0.077679
  C13      1.0000 0.72651  0.06647  0.09429  Biso   1.000  C  0.080716
  C14      1.0000 0.78878  0.07389  0.21563  Biso   1.000  C  -0.133163
  C15      1.0000 0.63710  0.91084  0.02621  Biso   1.000  C  -0.145020
  C16      1.0000 0.57242  0.90478  0.90616  Biso   1.000  C  -0.117415
  C17      1.0000 0.59870  0.05332  0.84868  Biso   1.000  C  -0.039507
  C18      1.0000 0.69377  0.20963  0.91817  Biso   1.000  C  -0.121759
  C19      1.0000 0.31907  0.06666  0.45665  Biso   1.000  C  0.486672
  C20      1.0000 0.13810  0.27766  0.79281  Biso   1.000  C  0.569657
  C21      1.0000 0.15539  0.27419  0.92075  Biso   1.000  C  -0.021635
  C22      1.0000 0.23226  0.42127  0.99717  Biso   1.000  C  -0.120323
  C23      1.0000 0.28431  0.40927  0.11619  Biso   1.000  C  -0.118025
  C24      1.0000 0.26807  0.24956  0.16286  Biso   1.000  C  0.081807
  C25      1.0000 0.19169  0.10115  0.08868  Biso   1.000  C  0.080163
  C26      1.0000 0.13299  0.11485  0.97003  Biso   1.000  C  -0.116627
  C27      1.0000 0.17614  0.94100  0.13437  Biso   1.000  C  -0.123943
  C28      1.0000 0.22887  0.92768  0.25278  Biso   1.000  C  -0.115866
  C29      1.0000 0.30335  0.07393  0.32959  Biso   1.000  C  -0.009280
  C30      1.0000 0.32484  0.23526  0.28189  Biso   1.000  C  -0.130261
  H1       1.0000 0.61507  0.46737  0.44673  Biso   1.000  H  0.085938
  H2       1.0000 0.75100  0.39772  0.56997  Biso   1.000  H  0.115258
  H3       1.0000 0.66483  0.87740  0.46248  Biso   1.000  H  0.099000
  H4       1.0000 0.65299  0.96365  0.59726  Biso   1.000  H  0.103967
  H5       1.0000 0.73760  0.50712  0.76056  Biso   1.000  H  0.090529
  H6       1.0000 0.58028  0.64193  0.77319  Biso   1.000  H  0.087596
  H7       1.0000 0.38532  0.72873  0.60109  Biso   1.000  H  0.107360
  H8       1.0000 0.39092  0.64847  0.46409  Biso   1.000  H  0.089463
  H9       1.0000 0.83895  0.87897  0.77249  Biso   1.000  H  0.087423
  H10      1.0000 0.00435  0.74559  0.76511  Biso   1.000  H  0.095845
  H11      1.0000 0.02773  0.63654  0.58063  Biso   1.000  H  0.098946
  H12      1.0000 0.89127  0.69527  0.45288  Biso   1.000  H  0.101352
  H13      1.0000 0.98477  0.50021  0.27564  Biso   1.000  H  0.103910
  H14      1.0000 0.86906  0.49066  0.06767  Biso   1.000  H  0.095545
  H15      1.0000 0.77052  0.95600  0.25526  Biso   1.000  H  0.107358
  H16      1.0000 0.61249  0.79302  0.06621  Biso   1.000  H  0.098728
  H17      1.0000 0.49599  0.78357  0.85826  Biso   1.000  H  0.100078
  H18      1.0000 0.71327  0.32742  0.87841  Biso   1.000  H  0.096581
  H19      1.0000 0.25839  0.54557  0.96500  Biso   1.000  H  0.103539
  H20      1.0000 0.34348  0.52563  0.17188  Biso   1.000  H  0.102708
  H21      1.0000 0.07633  0.99888  0.91626  Biso   1.000  H  0.102056
  H22      1.0000 0.11747  0.82504  0.07822  Biso   1.000  H  0.096601
  H23      1.0000 0.20436  0.80281  0.28431  Biso   1.000  H  0.103217
  H24      1.0000 0.37773  0.35142  0.33749  Biso   1.000  H  0.105701
  N1       1.0000 0.87650  0.82610  0.60548  Biso   1.000  N  -0.073689
  N2       1.0000 0.54790  0.53974  0.60270  Biso   1.000  N  -0.056951
  Ni1      1.0000 0.10565  0.01741  0.61757  Biso   1.000  Ni  0.800718
  Ni2      1.0000 0.28701  0.35476  0.61443  Biso   1.000  Ni  0.759326
  O1       1.0000 0.53677  0.19302  0.67477  Biso   1.000  O  -0.495716
  O2       1.0000 0.34580  0.92674  0.66815  Biso   1.000  O  -0.482862
  O3       1.0000 0.94486  0.09158  0.45967  Biso   1.000  O  -0.550240
  O4       1.0000 0.13563  0.35642  0.46590  Biso   1.000  O  -0.529976
  O5       1.0000 0.22852  0.40947  0.74845  Biso   1.000  O  -0.541074
  O6       1.0000 0.06876  0.13274  0.73368  Biso   1.000  O  -0.579578
  O7       1.0000 0.38823  0.21050  0.51618  Biso   1.000  O  -0.457771
  O8       1.0000 0.22757  0.93391  0.49996  Biso   1.000  O  -0.453889
