data_image0
_cell_length_a       13.8107
_cell_length_b       12.8732
_cell_length_c       16.8085
_cell_angle_alpha    90
_cell_angle_beta     90
_cell_angle_gamma    90

_symmetry_space_group_name_H-M    "P 1"
_symmetry_int_tables_number       1

loop_
  _symmetry_equiv_pos_as_xyz
  'x, y, z'

loop_
  _atom_site_label
  _atom_site_occupancy
  _atom_site_fract_x
  _atom_site_fract_y
  _atom_site_fract_z
  _atom_site_thermal_displace_type
  _atom_site_B_iso_or_equiv
  _atom_site_type_symbol
  _atom_site_charge
  C1       1.0000 0.00900  0.57530  0.72120  Biso   1.000  C  0.463845
  C2       1.0000 0.49100  0.42470  0.22120  Biso   1.000  C  0.463845
  C3       1.0000 0.99100  0.07530  0.77880  Biso   1.000  C  0.463844
  C4       1.0000 0.50900  0.92470  0.27880  Biso   1.000  C  0.463845
  C5       1.0000 0.99100  0.42470  0.27880  Biso   1.000  C  0.463845
  C6       1.0000 0.50900  0.57530  0.77880  Biso   1.000  C  0.463845
  C7       1.0000 0.00900  0.92470  0.22120  Biso   1.000  C  0.463845
  C8       1.0000 0.49100  0.07530  0.72120  Biso   1.000  C  0.463845
  C9       1.0000 0.91090  0.53030  0.74430  Biso   1.000  C  0.489580
  C10      1.0000 0.58910  0.46970  0.24430  Biso   1.000  C  0.489580
  C11      1.0000 0.08910  0.03030  0.75570  Biso   1.000  C  0.489580
  C12      1.0000 0.41090  0.96970  0.25570  Biso   1.000  C  0.489580
  C13      1.0000 0.08910  0.46970  0.25570  Biso   1.000  C  0.489580
  C14      1.0000 0.41090  0.53030  0.75570  Biso   1.000  C  0.489580
  C15      1.0000 0.91090  0.96970  0.24430  Biso   1.000  C  0.489580
  C16      1.0000 0.58910  0.03030  0.74430  Biso   1.000  C  0.489580
  C17      1.0000 0.04660  0.79720  0.90900  Biso   1.000  C  0.560357
  C18      1.0000 0.45340  0.20280  0.40900  Biso   1.000  C  0.560357
  C19      1.0000 0.95340  0.29720  0.59100  Biso   1.000  C  0.560357
  C20      1.0000 0.54660  0.70280  0.09100  Biso   1.000  C  0.560357
  C21      1.0000 0.95340  0.20280  0.09100  Biso   1.000  C  0.560357
  C22      1.0000 0.54660  0.79720  0.59100  Biso   1.000  C  0.560357
  C23      1.0000 0.04660  0.70280  0.40900  Biso   1.000  C  0.560357
  C24      1.0000 0.45340  0.29720  0.90900  Biso   1.000  C  0.560357
  C25      1.0000 0.92100  0.77570  0.97790  Biso   1.000  C  0.154264
  C26      1.0000 0.57900  0.22430  0.47790  Biso   1.000  C  0.154264
  C27      1.0000 0.07900  0.27570  0.52210  Biso   1.000  C  0.154264
  C28      1.0000 0.42100  0.72430  0.02210  Biso   1.000  C  0.154264
  C29      1.0000 0.07900  0.22430  0.02210  Biso   1.000  C  0.154265
  C30      1.0000 0.42100  0.77570  0.52210  Biso   1.000  C  0.154264
  C31      1.0000 0.92100  0.72430  0.47790  Biso   1.000  C  0.154264
  C32      1.0000 0.57900  0.27570  0.97790  Biso   1.000  C  0.154264
  C33      1.0000 0.22040  0.47380  0.02200  Biso   1.000  C  0.556384
  C34      1.0000 0.27960  0.52620  0.52200  Biso   1.000  C  0.556384
  C35      1.0000 0.77960  0.97380  0.47800  Biso   1.000  C  0.556383
  C36      1.0000 0.72040  0.02620  0.97800  Biso   1.000  C  0.556384
  C37      1.0000 0.77960  0.52620  0.97800  Biso   1.000  C  0.556383
  C38      1.0000 0.72040  0.47380  0.47800  Biso   1.000  C  0.556384
  C39      1.0000 0.22040  0.02620  0.52200  Biso   1.000  C  0.556383
  C40      1.0000 0.27960  0.97380  0.02200  Biso   1.000  C  0.556384
  C41      1.0000 0.18870  0.52540  0.90620  Biso   1.000  C  0.146999
  C42      1.0000 0.31130  0.47460  0.40620  Biso   1.000  C  0.146998
  C43      1.0000 0.81130  0.02540  0.59380  Biso   1.000  C  0.146998
  C44      1.0000 0.68870  0.97460  0.09380  Biso   1.000  C  0.146999
  C45      1.0000 0.81130  0.47460  0.09380  Biso   1.000  C  0.146999
  C46      1.0000 0.68870  0.52540  0.59380  Biso   1.000  C  0.146999
  C47      1.0000 0.18870  0.97460  0.40620  Biso   1.000  C  0.146998
  C48      1.0000 0.31130  0.02540  0.90620  Biso   1.000  C  0.146999
  H1       1.0000 0.86560  0.74510  0.00180  Biso   1.000  H  0.100053
  H2       1.0000 0.63440  0.25490  0.50180  Biso   1.000  H  0.100054
  H3       1.0000 0.13440  0.24510  0.49820  Biso   1.000  H  0.100053
  H4       1.0000 0.36560  0.75490  0.99820  Biso   1.000  H  0.100053
  H5       1.0000 0.13440  0.25490  0.99820  Biso   1.000  H  0.100053
  H6       1.0000 0.36560  0.74510  0.49820  Biso   1.000  H  0.100054
  H7       1.0000 0.86560  0.75490  0.50180  Biso   1.000  H  0.100054
  H8       1.0000 0.63440  0.24510  0.00180  Biso   1.000  H  0.100054
  H9       1.0000 0.19610  0.54820  0.85270  Biso   1.000  H  0.103393
  H10      1.0000 0.30390  0.45180  0.35270  Biso   1.000  H  0.103393
  H11      1.0000 0.80390  0.04820  0.64730  Biso   1.000  H  0.103393
  H12      1.0000 0.69610  0.95180  0.14730  Biso   1.000  H  0.103393
  H13      1.0000 0.80390  0.45180  0.14730  Biso   1.000  H  0.103393
  H14      1.0000 0.69610  0.54820  0.64730  Biso   1.000  H  0.103393
  H15      1.0000 0.19610  0.95180  0.35270  Biso   1.000  H  0.103393
  H16      1.0000 0.30390  0.04820  0.85270  Biso   1.000  H  0.103393
  H17      1.0000 0.16640  0.82950  0.85180  Biso   1.000  H  0.355269
  H18      1.0000 0.33360  0.17050  0.35180  Biso   1.000  H  0.355269
  H19      1.0000 0.83360  0.32950  0.64820  Biso   1.000  H  0.355269
  H20      1.0000 0.66640  0.67050  0.14820  Biso   1.000  H  0.355269
  H21      1.0000 0.83360  0.17050  0.14820  Biso   1.000  H  0.355269
  H22      1.0000 0.66640  0.82950  0.64820  Biso   1.000  H  0.355270
  H23      1.0000 0.16640  0.67050  0.35180  Biso   1.000  H  0.355269
  H24      1.0000 0.33360  0.32950  0.85180  Biso   1.000  H  0.355269
  H25      1.0000 0.13080  0.71920  0.83680  Biso   1.000  H  0.356043
  H26      1.0000 0.36920  0.28080  0.33680  Biso   1.000  H  0.356044
  H27      1.0000 0.86920  0.21920  0.66320  Biso   1.000  H  0.356043
  H28      1.0000 0.63080  0.78080  0.16320  Biso   1.000  H  0.356043
  H29      1.0000 0.86920  0.28080  0.16320  Biso   1.000  H  0.356043
  H30      1.0000 0.63080  0.71920  0.66320  Biso   1.000  H  0.356044
  H31      1.0000 0.13080  0.78080  0.33680  Biso   1.000  H  0.356043
  H32      1.0000 0.36920  0.21920  0.83680  Biso   1.000  H  0.356043
  H33      1.0000 0.23510  0.41480  0.12800  Biso   1.000  H  0.356606
  H34      1.0000 0.26490  0.58520  0.62800  Biso   1.000  H  0.356605
  H35      1.0000 0.76490  0.91480  0.37200  Biso   1.000  H  0.356605
  H36      1.0000 0.73510  0.08520  0.87200  Biso   1.000  H  0.356605
  H37      1.0000 0.76490  0.58520  0.87200  Biso   1.000  H  0.356605
  H38      1.0000 0.73510  0.41480  0.37200  Biso   1.000  H  0.356605
  H39      1.0000 0.23510  0.08520  0.62800  Biso   1.000  H  0.356605
  H40      1.0000 0.26490  0.91480  0.12800  Biso   1.000  H  0.356605
  H41      1.0000 0.33160  0.43600  0.08710  Biso   1.000  H  0.346641
  H42      1.0000 0.16840  0.56400  0.58710  Biso   1.000  H  0.346640
  H43      1.0000 0.66840  0.93600  0.41290  Biso   1.000  H  0.346640
  H44      1.0000 0.83160  0.06400  0.91290  Biso   1.000  H  0.346640
  H45      1.0000 0.66840  0.56400  0.91290  Biso   1.000  H  0.346640
  H46      1.0000 0.83160  0.43600  0.41290  Biso   1.000  H  0.346640
  H47      1.0000 0.33160  0.06400  0.58710  Biso   1.000  H  0.346640
  H48      1.0000 0.16840  0.93600  0.08710  Biso   1.000  H  0.346640
  N1       1.0000 0.97930  0.72460  0.92650  Biso   1.000  N  -0.424131
  N2       1.0000 0.52070  0.27540  0.42650  Biso   1.000  N  -0.424131
  N3       1.0000 0.02070  0.22460  0.57350  Biso   1.000  N  -0.424131
  N4       1.0000 0.47930  0.77540  0.07350  Biso   1.000  N  -0.424131
  N5       1.0000 0.02070  0.27540  0.07350  Biso   1.000  N  -0.424131
  N6       1.0000 0.47930  0.72460  0.57350  Biso   1.000  N  -0.424131
  N7       1.0000 0.97930  0.77540  0.42650  Biso   1.000  N  -0.424131
  N8       1.0000 0.52070  0.22460  0.92650  Biso   1.000  N  -0.424131
  N9       1.0000 0.94810  0.87100  0.99150  Biso   1.000  N  -0.182834
  N10      1.0000 0.55190  0.12900  0.49150  Biso   1.000  N  -0.182834
  N11      1.0000 0.05190  0.37100  0.50850  Biso   1.000  N  -0.182834
  N12      1.0000 0.44810  0.62900  0.00850  Biso   1.000  N  -0.182834
  N13      1.0000 0.05190  0.12900  0.00850  Biso   1.000  N  -0.182834
  N14      1.0000 0.44810  0.87100  0.50850  Biso   1.000  N  -0.182833
  N15      1.0000 0.94810  0.62900  0.49150  Biso   1.000  N  -0.182834
  N16      1.0000 0.55190  0.37100  0.99150  Biso   1.000  N  -0.182833
  N17      1.0000 0.03030  0.88640  0.94660  Biso   1.000  N  -0.324809
  N18      1.0000 0.46970  0.11360  0.44660  Biso   1.000  N  -0.324809
  N19      1.0000 0.96970  0.38640  0.55340  Biso   1.000  N  -0.324809
  N20      1.0000 0.53030  0.61360  0.05340  Biso   1.000  N  -0.324809
  N21      1.0000 0.96970  0.11360  0.05340  Biso   1.000  N  -0.324809
  N22      1.0000 0.53030  0.88640  0.55340  Biso   1.000  N  -0.324809
  N23      1.0000 0.03030  0.61360  0.44660  Biso   1.000  N  -0.324809
  N24      1.0000 0.46970  0.38640  0.94660  Biso   1.000  N  -0.324809
  N25      1.0000 0.12370  0.77990  0.86010  Biso   1.000  N  -0.742459
  N26      1.0000 0.37630  0.22010  0.36010  Biso   1.000  N  -0.742460
  N27      1.0000 0.87630  0.27990  0.63990  Biso   1.000  N  -0.742459
  N28      1.0000 0.62370  0.72010  0.13990  Biso   1.000  N  -0.742459
  N29      1.0000 0.87630  0.22010  0.13990  Biso   1.000  N  -0.742459
  N30      1.0000 0.62370  0.77990  0.63990  Biso   1.000  N  -0.742459
  N31      1.0000 0.12370  0.72010  0.36010  Biso   1.000  N  -0.742459
  N32      1.0000 0.37630  0.27990  0.86010  Biso   1.000  N  -0.742460
  N33      1.0000 0.12390  0.47800  0.01710  Biso   1.000  N  -0.337951
  N34      1.0000 0.37610  0.52200  0.51710  Biso   1.000  N  -0.337951
  N35      1.0000 0.87610  0.97800  0.48290  Biso   1.000  N  -0.337951
  N36      1.0000 0.62390  0.02200  0.98290  Biso   1.000  N  -0.337952
  N37      1.0000 0.87610  0.52200  0.98290  Biso   1.000  N  -0.337951
  N38      1.0000 0.62390  0.47800  0.48290  Biso   1.000  N  -0.337951
  N39      1.0000 0.12390  0.02200  0.51710  Biso   1.000  N  -0.337951
  N40      1.0000 0.37610  0.97800  0.01710  Biso   1.000  N  -0.337952
  N41      1.0000 0.10430  0.51210  0.94078  Biso   1.000  N  -0.206171
  N42      1.0000 0.39570  0.48790  0.44078  Biso   1.000  N  -0.206172
  N43      1.0000 0.89570  0.01210  0.55922  Biso   1.000  N  -0.206171
  N44      1.0000 0.60430  0.98790  0.05922  Biso   1.000  N  -0.206172
  N45      1.0000 0.89570  0.48790  0.05922  Biso   1.000  N  -0.206171
  N46      1.0000 0.60430  0.51210  0.55922  Biso   1.000  N  -0.206171
  N47      1.0000 0.10430  0.98790  0.44078  Biso   1.000  N  -0.206171
  N48      1.0000 0.39570  0.01210  0.94078  Biso   1.000  N  -0.206172
  N49      1.0000 0.26380  0.50320  0.95460  Biso   1.000  N  -0.430712
  N50      1.0000 0.23620  0.49680  0.45460  Biso   1.000  N  -0.430712
  N51      1.0000 0.73620  0.00320  0.54540  Biso   1.000  N  -0.430712
  N52      1.0000 0.76380  0.99680  0.04540  Biso   1.000  N  -0.430712
  N53      1.0000 0.73620  0.49680  0.04540  Biso   1.000  N  -0.430712
  N54      1.0000 0.76380  0.50320  0.54540  Biso   1.000  N  -0.430712
  N55      1.0000 0.26380  0.99680  0.45460  Biso   1.000  N  -0.430713
  N56      1.0000 0.23620  0.00320  0.95460  Biso   1.000  N  -0.430712
  N57      1.0000 0.26790  0.43730  0.08650  Biso   1.000  N  -0.737615
  N58      1.0000 0.23210  0.56270  0.58650  Biso   1.000  N  -0.737615
  N59      1.0000 0.73210  0.93730  0.41350  Biso   1.000  N  -0.737615
  N60      1.0000 0.76790  0.06270  0.91350  Biso   1.000  N  -0.737614
  N61      1.0000 0.73210  0.56270  0.91350  Biso   1.000  N  -0.737615
  N62      1.0000 0.76790  0.43730  0.41350  Biso   1.000  N  -0.737614
  N63      1.0000 0.26790  0.06270  0.58650  Biso   1.000  N  -0.737615
  N64      1.0000 0.23210  0.93730  0.08650  Biso   1.000  N  -0.737614
  O1       1.0000 0.06250  0.60110  0.77790  Biso   1.000  O  -0.526072
  O2       1.0000 0.43750  0.39890  0.27790  Biso   1.000  O  -0.526072
  O3       1.0000 0.93750  0.10110  0.72210  Biso   1.000  O  -0.526072
  O4       1.0000 0.56250  0.89890  0.22210  Biso   1.000  O  -0.526072
  O5       1.0000 0.93750  0.39890  0.22210  Biso   1.000  O  -0.526072
  O6       1.0000 0.56250  0.60110  0.72210  Biso   1.000  O  -0.526072
  O7       1.0000 0.06250  0.89890  0.27790  Biso   1.000  O  -0.526072
  O8       1.0000 0.43750  0.10110  0.77790  Biso   1.000  O  -0.526072
  O9       1.0000 0.89210  0.51960  0.81629  Biso   1.000  O  -0.484956
  O10      1.0000 0.60790  0.48040  0.31629  Biso   1.000  O  -0.484956
  O11      1.0000 0.10790  0.01960  0.68371  Biso   1.000  O  -0.484956
  O12      1.0000 0.39210  0.98040  0.18371  Biso   1.000  O  -0.484956
  O13      1.0000 0.10790  0.48040  0.18371  Biso   1.000  O  -0.484956
  O14      1.0000 0.39210  0.51960  0.68371  Biso   1.000  O  -0.484956
  O15      1.0000 0.89210  0.98040  0.31629  Biso   1.000  O  -0.484957
  O16      1.0000 0.60790  0.01960  0.81629  Biso   1.000  O  -0.484956
  O17      1.0000 0.02510  0.58190  0.64793  Biso   1.000  O  -0.518986
  O18      1.0000 0.47490  0.41810  0.14793  Biso   1.000  O  -0.518986
  O19      1.0000 0.97490  0.08190  0.85207  Biso   1.000  O  -0.518986
  O20      1.0000 0.52510  0.91810  0.35207  Biso   1.000  O  -0.518986
  O21      1.0000 0.97490  0.41810  0.35207  Biso   1.000  O  -0.518986
  O22      1.0000 0.52510  0.58190  0.85207  Biso   1.000  O  -0.518986
  O23      1.0000 0.02510  0.91810  0.14793  Biso   1.000  O  -0.518986
  O24      1.0000 0.47490  0.08190  0.64793  Biso   1.000  O  -0.518986
  O25      1.0000 0.85530  0.50480  0.68949  Biso   1.000  O  -0.496339
  O26      1.0000 0.64470  0.49520  0.18949  Biso   1.000  O  -0.496339
  O27      1.0000 0.14470  0.00480  0.81051  Biso   1.000  O  -0.496339
  O28      1.0000 0.35530  0.99520  0.31051  Biso   1.000  O  -0.496339
  O29      1.0000 0.14470  0.49520  0.31051  Biso   1.000  O  -0.496339
  O30      1.0000 0.35530  0.50480  0.81051  Biso   1.000  O  -0.496339
  O31      1.0000 0.85530  0.99520  0.18949  Biso   1.000  O  -0.496339
  O32      1.0000 0.64470  0.00480  0.68949  Biso   1.000  O  -0.496339
  Zn1      1.0000 0.97869  0.57061  0.90282  Biso   1.000  Zn  0.710962
  Zn2      1.0000 0.52131  0.42939  0.40282  Biso   1.000  Zn  0.710962
  Zn3      1.0000 0.02131  0.07061  0.59718  Biso   1.000  Zn  0.710962
  Zn4      1.0000 0.47869  0.92939  0.09718  Biso   1.000  Zn  0.710962
  Zn5      1.0000 0.02131  0.42939  0.09718  Biso   1.000  Zn  0.710962
  Zn6      1.0000 0.47869  0.57061  0.59718  Biso   1.000  Zn  0.710962
  Zn7      1.0000 0.97869  0.92939  0.40282  Biso   1.000  Zn  0.710962
  Zn8      1.0000 0.52131  0.07061  0.90282  Biso   1.000  Zn  0.710962
  Zn9      1.0000 0.90706  0.52388  0.57463  Biso   1.000  Zn  0.712642
  Zn10     1.0000 0.59294  0.47612  0.07463  Biso   1.000  Zn  0.712641
  Zn11     1.0000 0.09294  0.02388  0.92537  Biso   1.000  Zn  0.712642
  Zn12     1.0000 0.40706  0.97612  0.42537  Biso   1.000  Zn  0.712642
  Zn13     1.0000 0.09294  0.47612  0.42537  Biso   1.000  Zn  0.712641
  Zn14     1.0000 0.40706  0.52388  0.92537  Biso   1.000  Zn  0.712642
  Zn15     1.0000 0.90706  0.97612  0.07463  Biso   1.000  Zn  0.712641
  Zn16     1.0000 0.59294  0.02388  0.57463  Biso   1.000  Zn  0.712642
