
##########################################################################
#               Crystallographic Information Format file
#               Produced by PyCifRW module
#
#  This is a CIF file.  CIF has been adopted by the International
#  Union of Crystallography as the standard for data archiving and
#  transmission.
#
#  For information on this file format, follow the CIF links at
#  http://www.iucr.org
##########################################################################

data_image0

_cell_length_a                          7.9273
_cell_length_b                          10.556
_cell_length_c                          13.155
_cell_angle_alpha                       107.26
_cell_angle_beta                        107.06
_cell_angle_gamma                       90.65
_symmetry_space_group_name_H-M          'P 1'
_symmetry_int_tables_number             1
loop_
  _symmetry_equiv_pos_as_xyz
         'x, y, z' 
loop_
  _atom_site_label
  _atom_site_occupancy
  _atom_site_fract_x
  _atom_site_fract_y
  _atom_site_fract_z
  _atom_site_thermal_displace_type
  _atom_site_B_iso_or_equiv
  _atom_site_type_symbol
  _atom_site_charge
         C1        1.0000    0.17500   0.36920   0.78000   Biso      1.000     C          -0.26611999999999997          
         C2        1.0000    0.38800   0.99100   0.37500   Biso      1.000     C          -0.081924           
         C3        1.0000    0.50100   0.07600   0.58950   Biso      1.000     C          0.628761  
         C4        1.0000    0.27900   0.24940   0.77950   Biso      1.000     C          0.622057  
         C5        1.0000    0.98800   0.36600   0.74890   Biso      1.000     C          -0.09210800000000001          
         C6        1.0000    0.90900   0.48500   0.74860   Biso      1.000     C          0.128581  
         C7        1.0000    0.00200   0.61320   0.78700   Biso      1.000     C          -0.16336199999999998          
         C8        1.0000    0.89100   0.72200   0.78500   Biso      1.000     C          -0.102505           
         C9        1.0000    0.71500   0.71410   0.74130   Biso      1.000     C          -0.030349           
         C10       1.0000    0.62000   0.83200   0.74720   Biso      1.000     C          0.605528  
         C11       1.0000    0.63030   0.58840   0.71270   Biso      1.000     C          -0.101833           
         C12       1.0000    0.72800   0.47920   0.71720   Biso      1.000     C          -0.15198699999999998          
         C13       1.0000    0.82420   0.36540   0.00230   Biso      1.000     C          0.100793  
         C14       1.0000    0.97480   0.44610   0.07920   Biso      1.000     C          -0.155673           
         C15       1.0000    0.14130   0.40150   0.08820   Biso      1.000     C          0.07929800000000001           
         C16       1.0000    0.15710   0.27620   0.02020   Biso      1.000     C          -0.147763           
         C17       1.0000    0.00640   0.19550   0.94340   Biso      1.000     C          0.11783099999999999           
         C18       1.0000    0.30480   0.48270   0.17160   Biso      1.000     C          0.233994  
         C19       1.0000    0.61110   0.63160   0.33070   Biso      1.000     C          0.25307199999999996           
         C20       1.0000    0.74900   0.68740   0.42070   Biso      1.000     C          0.06743500000000001           
         C21       1.0000    0.73250   0.79740   0.50570   Biso      1.000     C          -0.135771           
         C22       1.0000    0.88330   0.87130   0.58830   Biso      1.000     C          0.102466  
         C23       1.0000    0.06700   0.72550   0.50090   Biso      1.000     C          0.095844  
         C24       1.0000    0.91620   0.65150   0.41830   Biso      1.000     C          -0.146929           
         C25       1.0000    0.29600   0.91490   0.06670   Biso      1.000     C          -0.099441           
         C26       1.0000    0.30700   0.91320   0.17620   Biso      1.000     C          -0.15123  
         C27       1.0000    0.50200   0.07900   0.46730   Biso      1.000     C          -0.257504           
         C28       1.0000    0.49200   0.08700   0.26020   Biso      1.000     C          -0.167371           
         C29       1.0000    0.48200   0.08800   0.14330   Biso      1.000     C          -0.122178           
         C30       1.0000    0.39100   0.00600   0.04680   Biso      1.000     C          -0.00953  
         C31       1.0000    0.39300   0.01700   0.94360   Biso      1.000     C          0.594742  
         C32       1.0000    0.39200   0.98900   0.27450   Biso      1.000     C          0.153282  
         H1        1.0000    0.55020   0.15860   0.14060   Biso      1.000     H          0.087814  
         H2        1.0000    0.56600   0.15180   0.32260   Biso      1.000     H          0.10853399999999999           
         H3        1.0000    0.23810   0.84150   0.17610   Biso      1.000     H          0.080707  
         H4        1.0000    0.21960   0.84940   0.00580   Biso      1.000     H          0.099635  
         H5        1.0000    0.30670   0.93280   0.38190   Biso      1.000     H          0.11736300000000001           
         H6        1.0000    0.57970   0.14040   0.46090   Biso      1.000     H          0.141692  
         H7        1.0000    0.24030   0.45210   0.80280   Biso      1.000     H          0.13258399999999998           
         H8        1.0000    0.91810   0.28590   0.72880   Biso      1.000     H          0.12400499999999999           
         H9        1.0000    0.95060   0.80760   0.81830   Biso      1.000     H          0.100348  
         H10       1.0000    0.50700   0.57560   0.69020   Biso      1.000     H          0.11238699999999999           
         H11       1.0000    0.12520   0.62730   0.81150   Biso      1.000     H          0.129618  
         H12       1.0000    0.71280   0.39530   0.99630   Biso      1.000     H          0.11535799999999999           
         H13       1.0000    0.96430   0.53000   0.12470   Biso      1.000     H          0.132672  
         H14       1.0000    0.26840   0.24640   0.02620   Biso      1.000     H          0.129993  
         H15       1.0000    0.01700   0.11160   0.89790   Biso      1.000     H          0.116076  
         H16       1.0000    0.62060   0.82140   0.50730   Biso      1.000     H          0.129651  
         H17       1.0000    0.87230   0.94490   0.64510   Biso      1.000     H          0.11955999999999999           
         H18       1.0000    0.17890   0.70140   0.49930   Biso      1.000     H          0.11633099999999999           
         H19       1.0000    0.92720   0.57800   0.36150   Biso      1.000     H          0.12752   
         H20       1.0000    0.66490   0.39620   0.69720   Biso      1.000     H          0.114424  
         N1        1.0000    0.05060   0.83540   0.58590   Biso      1.000     N          -0.188027           
         N2        1.0000    0.29540   0.60870   0.24110   Biso      1.000     N          -0.162477           
         N3        1.0000    0.84000   0.24010   0.93440   Biso      1.000     N          -0.20753000000000002          
         N4        1.0000    0.46730   0.43120   0.18150   Biso      1.000     N          -0.13059400000000002          
         N5        1.0000    0.62050   0.50560   0.26110   Biso      1.000     N          -0.15673199999999998          
         N6        1.0000    0.44860   0.68310   0.32070   Biso      1.000     N          -0.121699           
         O1        1.0000    0.37300   0.99400   0.58410   Biso      1.000     O          -0.602011           
         O2        1.0000    0.44200   0.27340   0.81850   Biso      1.000     O          -0.528691           
         O3        1.0000    0.17720   0.13560   0.73600   Biso      1.000     O          -0.569195           
         O4        1.0000    0.61900   0.13760   0.66770   Biso      1.000     O          -0.500859           
         O5        1.0000    0.44980   0.81760   0.70470   Biso      1.000     O          -0.583587           
         O6        1.0000    0.52400   0.08120   0.94010   Biso      1.000     O          -0.543632           
         O7        1.0000    0.70100   0.94610   0.79330   Biso      1.000     O          -0.551063           
         O8        1.0000    0.26000   0.95010   0.85260   Biso      1.000     O          -0.567409           
         Zn1       1.0000    0.61427   0.12923   0.82206   Biso      1.000     Zn          0.8410979999999999  
         Zn2       1.0000    0.27383   0.95463   0.70183   Biso      1.000     Zn          0.836031 