data_image0
_cell_length_a       26.67
_cell_length_b       26.67
_cell_length_c       26.785
_cell_angle_alpha    60.1419
_cell_angle_beta     60.1419
_cell_angle_gamma    90

_symmetry_space_group_name_H-M    "P 1"
_symmetry_int_tables_number       1

loop_
  _symmetry_equiv_pos_as_xyz
  'x, y, z'

loop_
  _atom_site_label
  _atom_site_occupancy
  _atom_site_fract_x
  _atom_site_fract_y
  _atom_site_fract_z
  _atom_site_thermal_displace_type
  _atom_site_B_iso_or_equiv
  _atom_site_type_symbol
  _atom_site_charge
  C1       1.0000 0.61881  0.07098  0.09768  Biso   1.000  C  0.611176
  C2       1.0000 0.63771  0.05559  0.28146  Biso   1.000  C  0.600560
  C3       1.0000 0.62864  0.06727  0.18814  Biso   1.000  C  -0.134110
  C4       1.0000 0.59350  0.07042  0.16222  Biso   1.000  C  0.002240
  C5       1.0000 0.60291  0.06444  0.24972  Biso   1.000  C  0.005259
  C6       1.0000 0.53526  0.07263  0.19628  Biso   1.000  C  -0.196349
  C7       1.0000 0.50824  0.06824  0.25882  Biso   1.000  C  0.264646
  C8       1.0000 0.54397  0.06509  0.28450  Biso   1.000  C  -0.215627
  C9       1.0000 0.39823  0.05313  0.30134  Biso   1.000  C  0.568854
  C10      1.0000 0.34918  0.02878  0.26324  Biso   1.000  C  0.577119
  C11      1.0000 0.29880  0.04290  0.35020  Biso   1.000  C  0.584700
  C12      1.0000 0.20785  0.98192  0.23674  Biso   1.000  C  0.018009
  C13      1.0000 0.28742  0.97458  0.14724  Biso   1.000  C  0.011824
  C14      1.0000 0.30895  0.96221  0.09312  Biso   1.000  C  0.599522
  C15      1.0000 0.22812  0.97335  0.18368  Biso   1.000  C  -0.134744
  C16      1.0000 0.32662  0.98780  0.16176  Biso   1.000  C  -0.226587
  C17      1.0000 0.24576  0.99316  0.25108  Biso   1.000  C  -0.193531
  C18      1.0000 0.30841  0.99931  0.21238  Biso   1.000  C  0.269011
  C19      1.0000 0.14359  0.03762  0.55376  Biso   1.000  C  0.013897
  C20      1.0000 0.25611  0.02279  0.49030  Biso   1.000  C  -0.194704
  C21      1.0000 0.22485  0.03695  0.45830  Biso   1.000  C  0.272417
  C22      1.0000 0.16812  0.04287  0.49098  Biso   1.000  C  -0.228148
  C23      1.0000 0.17398  0.02503  0.58480  Biso   1.000  C  -0.139156
  C24      1.0000 0.07913  0.03979  0.59048  Biso   1.000  C  0.588287
  C25      1.0000 0.14196  0.97764  0.27858  Biso   1.000  C  0.597300
  C26      1.0000 0.26394  0.00056  0.58758  Biso   1.000  C  0.601525
  C27      1.0000 0.23169  0.01742  0.55144  Biso   1.000  C  0.007354
  C28      1.0000 0.28351  0.83134  0.09768  Biso   1.000  C  0.607984
  C29      1.0000 0.08083  0.66295  0.28146  Biso   1.000  C  0.603881
  C30      1.0000 0.18322  0.74459  0.18814  Biso   1.000  C  -0.134308
  C31      1.0000 0.24428  0.76736  0.16222  Biso   1.000  C  0.005635
  C32      1.0000 0.14737  0.68584  0.24972  Biso   1.000  C  0.002127
  C33      1.0000 0.26846  0.73109  0.19628  Biso   1.000  C  -0.196964
  C34      1.0000 0.23294  0.67294  0.25882  Biso   1.000  C  0.264757
  C35      1.0000 0.17153  0.65041  0.28450  Biso   1.000  C  -0.214801
  C36      1.0000 0.30043  0.64553  0.30134  Biso   1.000  C  0.568826
  C37      1.0000 0.38758  0.70798  0.26324  Biso   1.000  C  0.577210
  C38      1.0000 0.35100  0.60690  0.35020  Biso   1.000  C  0.584630
  C39      1.0000 0.55541  0.78134  0.23674  Biso   1.000  C  0.014206
  C40      1.0000 0.56534  0.87818  0.14724  Biso   1.000  C  0.007955
  C41      1.0000 0.59793  0.94467  0.09312  Biso   1.000  C  0.602782
  C42      1.0000 0.58820  0.84297  0.18368  Biso   1.000  C  -0.132899
  C43      1.0000 0.51162  0.85044  0.16176  Biso   1.000  C  -0.226308
  C44      1.0000 0.50316  0.75576  0.25108  Biso   1.000  C  -0.192989
  C45      1.0000 0.47921  0.78831  0.21238  Biso   1.000  C  0.268329
  C46      1.0000 0.30265  0.40862  0.55376  Biso   1.000  C  0.014358
  C47      1.0000 0.25359  0.48691  0.49030  Biso   1.000  C  -0.195278
  C48      1.0000 0.31685  0.50475  0.45830  Biso   1.000  C  0.272874
  C49      1.0000 0.34090  0.46615  0.49098  Biso   1.000  C  -0.228026
  C50      1.0000 0.24122  0.39017  0.58480  Biso   1.000  C  -0.140166
  C51      1.0000 0.33039  0.36973  0.59048  Biso   1.000  C  0.588299
  C52      1.0000 0.57946  0.74378  0.27858  Biso   1.000  C  0.598766
  C53      1.0000 0.14848  0.41186  0.58758  Biso   1.000  C  0.598267
  C54      1.0000 0.21687  0.43114  0.55144  Biso   1.000  C  0.010908
  C55      1.0000 0.07098  0.28351  0.09768  Biso   1.000  C  0.611201
  C56      1.0000 0.05559  0.08083  0.28146  Biso   1.000  C  0.600480
  C57      1.0000 0.06727  0.18322  0.18814  Biso   1.000  C  -0.134156
  C58      1.0000 0.07042  0.24428  0.16222  Biso   1.000  C  0.002138
  C59      1.0000 0.06444  0.14737  0.24972  Biso   1.000  C  0.005282
  C60      1.0000 0.07263  0.26846  0.19628  Biso   1.000  C  -0.196395
  C61      1.0000 0.06824  0.23294  0.25882  Biso   1.000  C  0.264676
  C62      1.0000 0.06509  0.17153  0.28450  Biso   1.000  C  -0.215416
  C63      1.0000 0.05313  0.30043  0.30134  Biso   1.000  C  0.568871
  C64      1.0000 0.02878  0.38758  0.26324  Biso   1.000  C  0.577183
  C65      1.0000 0.04290  0.35100  0.35020  Biso   1.000  C  0.584620
  C66      1.0000 0.98192  0.55541  0.23674  Biso   1.000  C  0.013974
  C67      1.0000 0.97458  0.56534  0.14724  Biso   1.000  C  0.008053
  C68      1.0000 0.96221  0.59793  0.09312  Biso   1.000  C  0.602819
  C69      1.0000 0.97335  0.58820  0.18368  Biso   1.000  C  -0.132615
  C70      1.0000 0.98780  0.51162  0.16176  Biso   1.000  C  -0.226267
  C71      1.0000 0.99316  0.50316  0.25108  Biso   1.000  C  -0.192841
  C72      1.0000 0.99931  0.47921  0.21238  Biso   1.000  C  0.268259
  C73      1.0000 0.03762  0.30265  0.55376  Biso   1.000  C  0.014352
  C74      1.0000 0.02279  0.25359  0.49030  Biso   1.000  C  -0.195205
  C75      1.0000 0.03695  0.31685  0.45830  Biso   1.000  C  0.272817
  C76      1.0000 0.04287  0.34090  0.49098  Biso   1.000  C  -0.228230
  C77      1.0000 0.02503  0.24122  0.58480  Biso   1.000  C  -0.140047
  C78      1.0000 0.03979  0.33039  0.59048  Biso   1.000  C  0.588326
  C79      1.0000 0.97764  0.57946  0.27858  Biso   1.000  C  0.600709
  C80      1.0000 0.00056  0.14848  0.58758  Biso   1.000  C  0.598239
  C81      1.0000 0.01742  0.21687  0.55144  Biso   1.000  C  0.011041
  C82      1.0000 0.83134  0.61881  0.09768  Biso   1.000  C  0.611201
  C83      1.0000 0.66295  0.63771  0.28146  Biso   1.000  C  0.601913
  C84      1.0000 0.74459  0.62864  0.18814  Biso   1.000  C  -0.133477
  C85      1.0000 0.76736  0.59350  0.16222  Biso   1.000  C  0.001762
  C86      1.0000 0.68584  0.60291  0.24972  Biso   1.000  C  0.002043
  C87      1.0000 0.73109  0.53526  0.19628  Biso   1.000  C  -0.196819
  C88      1.0000 0.67294  0.50824  0.25882  Biso   1.000  C  0.264347
  C89      1.0000 0.65041  0.54397  0.28450  Biso   1.000  C  -0.215085
  C90      1.0000 0.64553  0.39823  0.30134  Biso   1.000  C  0.568932
  C91      1.0000 0.70798  0.34918  0.26324  Biso   1.000  C  0.577110
  C92      1.0000 0.60690  0.29880  0.35020  Biso   1.000  C  0.584660
  C93      1.0000 0.78134  0.20785  0.23674  Biso   1.000  C  0.017634
  C94      1.0000 0.87818  0.28742  0.14724  Biso   1.000  C  0.008338
  C95      1.0000 0.94467  0.30895  0.09312  Biso   1.000  C  0.602817
  C96      1.0000 0.84297  0.22812  0.18368  Biso   1.000  C  -0.133769
  C97      1.0000 0.85044  0.32662  0.16176  Biso   1.000  C  -0.226199
  C98      1.0000 0.75576  0.24576  0.25108  Biso   1.000  C  -0.193331
  C99      1.0000 0.78831  0.30841  0.21238  Biso   1.000  C  0.268786
  C100     1.0000 0.40862  0.14359  0.55376  Biso   1.000  C  0.010686
  C101     1.0000 0.48691  0.25611  0.49030  Biso   1.000  C  -0.195388
  C102     1.0000 0.50475  0.22485  0.45830  Biso   1.000  C  0.272508
  C103     1.0000 0.46615  0.16812  0.49098  Biso   1.000  C  -0.227703
  C104     1.0000 0.39017  0.17398  0.58480  Biso   1.000  C  -0.139197
  C105     1.0000 0.36973  0.07913  0.59048  Biso   1.000  C  0.591598
  C106     1.0000 0.74378  0.14196  0.27858  Biso   1.000  C  0.597297
  C107     1.0000 0.41186  0.26394  0.58758  Biso   1.000  C  0.598242
  C108     1.0000 0.43114  0.23169  0.55144  Biso   1.000  C  0.010521
  C109     1.0000 0.38119  0.92902  0.90232  Biso   1.000  C  0.607975
  C110     1.0000 0.36229  0.94441  0.71854  Biso   1.000  C  0.603900
  C111     1.0000 0.37136  0.93273  0.81186  Biso   1.000  C  -0.134266
  C112     1.0000 0.40650  0.92958  0.83778  Biso   1.000  C  0.005684
  C113     1.0000 0.39709  0.93556  0.75028  Biso   1.000  C  0.002104
  C114     1.0000 0.46474  0.92737  0.80372  Biso   1.000  C  -0.196895
  C115     1.0000 0.49176  0.93176  0.74118  Biso   1.000  C  0.264752
  C116     1.0000 0.45603  0.93491  0.71550  Biso   1.000  C  -0.214757
  C117     1.0000 0.60177  0.94687  0.69866  Biso   1.000  C  0.568850
  C118     1.0000 0.65082  0.97122  0.73676  Biso   1.000  C  0.577178
  C119     1.0000 0.70120  0.95710  0.64980  Biso   1.000  C  0.584656
  C120     1.0000 0.79215  0.01808  0.76326  Biso   1.000  C  0.017593
  C121     1.0000 0.71258  0.02542  0.85276  Biso   1.000  C  0.008454
  C122     1.0000 0.69105  0.03779  0.90688  Biso   1.000  C  0.602770
  C123     1.0000 0.77188  0.02665  0.81632  Biso   1.000  C  -0.133731
  C124     1.0000 0.67338  0.01220  0.83824  Biso   1.000  C  -0.225903
  C125     1.0000 0.75424  0.00684  0.74892  Biso   1.000  C  -0.193462
  C126     1.0000 0.69159  0.00069  0.78762  Biso   1.000  C  0.268708
  C127     1.0000 0.85641  0.96238  0.44624  Biso   1.000  C  0.014362
  C128     1.0000 0.74389  0.97721  0.50970  Biso   1.000  C  -0.195271
  C129     1.0000 0.77515  0.96305  0.54170  Biso   1.000  C  0.272815
  C130     1.0000 0.83188  0.95713  0.50902  Biso   1.000  C  -0.228045
  C131     1.0000 0.82602  0.97497  0.41520  Biso   1.000  C  -0.140057
  C132     1.0000 0.92087  0.96021  0.40952  Biso   1.000  C  0.588296
  C133     1.0000 0.85804  0.02236  0.72142  Biso   1.000  C  0.597309
  C134     1.0000 0.73606  0.99944  0.41242  Biso   1.000  C  0.598258
  C135     1.0000 0.76831  0.98258  0.44856  Biso   1.000  C  0.010968
  C136     1.0000 0.71649  0.16866  0.90232  Biso   1.000  C  0.611167
  C137     1.0000 0.91917  0.33705  0.71854  Biso   1.000  C  0.600554
  C138     1.0000 0.81678  0.25541  0.81186  Biso   1.000  C  -0.134246
  C139     1.0000 0.75572  0.23264  0.83778  Biso   1.000  C  0.002209
  C140     1.0000 0.85263  0.31416  0.75028  Biso   1.000  C  0.005194
  C141     1.0000 0.73154  0.26891  0.80372  Biso   1.000  C  -0.196357
  C142     1.0000 0.76706  0.32706  0.74118  Biso   1.000  C  0.264728
  C143     1.0000 0.82847  0.34959  0.71550  Biso   1.000  C  -0.215669
  C144     1.0000 0.69957  0.35447  0.69866  Biso   1.000  C  0.568816
  C145     1.0000 0.61242  0.29202  0.73676  Biso   1.000  C  0.577086
  C146     1.0000 0.64900  0.39310  0.64980  Biso   1.000  C  0.584735
  C147     1.0000 0.44459  0.21866  0.76326  Biso   1.000  C  0.018001
  C148     1.0000 0.43466  0.12182  0.85276  Biso   1.000  C  0.011778
  C149     1.0000 0.40207  0.05533  0.90688  Biso   1.000  C  0.599532
  C150     1.0000 0.41180  0.15703  0.81632  Biso   1.000  C  -0.134829
  C151     1.0000 0.48838  0.14956  0.83824  Biso   1.000  C  -0.226657
  C152     1.0000 0.49684  0.24424  0.74892  Biso   1.000  C  -0.193500
  C153     1.0000 0.52079  0.21169  0.78762  Biso   1.000  C  0.269062
  C154     1.0000 0.69735  0.59138  0.44624  Biso   1.000  C  0.010637
  C155     1.0000 0.74641  0.51309  0.50970  Biso   1.000  C  -0.195169
  C156     1.0000 0.68315  0.49525  0.54170  Biso   1.000  C  0.271987
  C157     1.0000 0.65910  0.53385  0.50902  Biso   1.000  C  -0.227832
  C158     1.0000 0.75878  0.60983  0.41520  Biso   1.000  C  -0.138396
  C159     1.0000 0.66961  0.63027  0.40952  Biso   1.000  C  0.589706
  C160     1.0000 0.42054  0.25622  0.72142  Biso   1.000  C  0.597296
  C161     1.0000 0.85152  0.58814  0.41242  Biso   1.000  C  0.601537
  C162     1.0000 0.78313  0.56886  0.44856  Biso   1.000  C  0.006882
  C163     1.0000 0.92902  0.71649  0.90232  Biso   1.000  C  0.611199
  C164     1.0000 0.94441  0.91917  0.71854  Biso   1.000  C  0.600520
  C165     1.0000 0.93273  0.81678  0.81186  Biso   1.000  C  -0.134163
  C166     1.0000 0.92958  0.75572  0.83778  Biso   1.000  C  0.002211
  C167     1.0000 0.93556  0.85263  0.75028  Biso   1.000  C  0.005249
  C168     1.0000 0.92737  0.73154  0.80372  Biso   1.000  C  -0.196378
  C169     1.0000 0.93176  0.76706  0.74118  Biso   1.000  C  0.264664
  C170     1.0000 0.93491  0.82847  0.71550  Biso   1.000  C  -0.215480
  C171     1.0000 0.94687  0.69957  0.69866  Biso   1.000  C  0.568867
  C172     1.0000 0.97122  0.61242  0.73676  Biso   1.000  C  0.577101
  C173     1.0000 0.95710  0.64900  0.64980  Biso   1.000  C  0.584669
  C174     1.0000 0.01808  0.44459  0.76326  Biso   1.000  C  0.017657
  C175     1.0000 0.02542  0.43466  0.85276  Biso   1.000  C  0.008400
  C176     1.0000 0.03779  0.40207  0.90688  Biso   1.000  C  0.602811
  C177     1.0000 0.02665  0.41180  0.81632  Biso   1.000  C  -0.133724
  C178     1.0000 0.01220  0.48838  0.83824  Biso   1.000  C  -0.226126
  C179     1.0000 0.00684  0.49684  0.74892  Biso   1.000  C  -0.193333
  C180     1.0000 0.00069  0.52079  0.78762  Biso   1.000  C  0.268764
  C181     1.0000 0.96238  0.69735  0.44624  Biso   1.000  C  0.010791
  C182     1.0000 0.97721  0.74641  0.50970  Biso   1.000  C  -0.195472
  C183     1.0000 0.96305  0.68315  0.54170  Biso   1.000  C  0.272414
  C184     1.0000 0.95713  0.65910  0.50902  Biso   1.000  C  -0.227635
  C185     1.0000 0.97497  0.75878  0.41520  Biso   1.000  C  -0.139105
  C186     1.0000 0.96021  0.66961  0.40952  Biso   1.000  C  0.591572
  C187     1.0000 0.02236  0.42054  0.72142  Biso   1.000  C  0.597302
  C188     1.0000 0.99944  0.85152  0.41242  Biso   1.000  C  0.598258
  C189     1.0000 0.98258  0.78313  0.44856  Biso   1.000  C  0.010508
  C190     1.0000 0.16866  0.38119  0.90232  Biso   1.000  C  0.611199
  C191     1.0000 0.33705  0.36229  0.71854  Biso   1.000  C  0.600489
  C192     1.0000 0.25541  0.37136  0.81186  Biso   1.000  C  -0.134246
  C193     1.0000 0.23264  0.40650  0.83778  Biso   1.000  C  0.002098
  C194     1.0000 0.31416  0.39709  0.75028  Biso   1.000  C  0.005258
  C195     1.0000 0.26891  0.46474  0.80372  Biso   1.000  C  -0.196422
  C196     1.0000 0.32706  0.49176  0.74118  Biso   1.000  C  0.264730
  C197     1.0000 0.34959  0.45603  0.71550  Biso   1.000  C  -0.215401
  C198     1.0000 0.35447  0.60177  0.69866  Biso   1.000  C  0.568884
  C199     1.0000 0.29202  0.65082  0.73676  Biso   1.000  C  0.577195
  C200     1.0000 0.39310  0.70120  0.64980  Biso   1.000  C  0.584687
  C201     1.0000 0.21866  0.79215  0.76326  Biso   1.000  C  0.013887
  C202     1.0000 0.12182  0.71258  0.85276  Biso   1.000  C  0.008039
  C203     1.0000 0.05533  0.69105  0.90688  Biso   1.000  C  0.602803
  C204     1.0000 0.15703  0.77188  0.81632  Biso   1.000  C  -0.132768
  C205     1.0000 0.14956  0.67338  0.83824  Biso   1.000  C  -0.226254
  C206     1.0000 0.24424  0.75424  0.74892  Biso   1.000  C  -0.192828
  C207     1.0000 0.21169  0.69159  0.78762  Biso   1.000  C  0.268350
  C208     1.0000 0.59138  0.85641  0.44624  Biso   1.000  C  0.013850
  C209     1.0000 0.51309  0.74389  0.50970  Biso   1.000  C  -0.194854
  C210     1.0000 0.49525  0.77515  0.54170  Biso   1.000  C  0.272415
  C211     1.0000 0.53385  0.83188  0.50902  Biso   1.000  C  -0.228661
  C212     1.0000 0.60983  0.82602  0.41520  Biso   1.000  C  -0.139222
  C213     1.0000 0.63027  0.92087  0.40952  Biso   1.000  C  0.588355
  C214     1.0000 0.25622  0.85804  0.72142  Biso   1.000  C  0.600729
  C215     1.0000 0.58814  0.73606  0.41242  Biso   1.000  C  0.599625
  C216     1.0000 0.56886  0.76831  0.44856  Biso   1.000  C  0.007827
  Cu1      1.0000 0.96588  0.03819  0.60544  Biso   1.000  Cu  0.819848
  Cu2      1.0000 0.97376  0.02885  0.70396  Biso   1.000  Cu  0.866635
  Cu3      1.0000 0.42868  0.35637  0.60544  Biso   1.000  Cu  0.819989
  Cu4      1.0000 0.32228  0.26719  0.70396  Biso   1.000  Cu  0.866585
  Cu5      1.0000 0.03819  0.42868  0.60544  Biso   1.000  Cu  0.819558
  Cu6      1.0000 0.02885  0.32228  0.70396  Biso   1.000  Cu  0.866652
  Cu7      1.0000 0.35637  0.96588  0.60544  Biso   1.000  Cu  0.852558
  Cu8      1.0000 0.26719  0.97376  0.70396  Biso   1.000  Cu  0.884840
  Cu9      1.0000 0.03412  0.96181  0.39456  Biso   1.000  Cu  0.819835
  Cu10     1.0000 0.02624  0.97115  0.29604  Biso   1.000  Cu  0.866666
  Cu11     1.0000 0.57132  0.64363  0.39456  Biso   1.000  Cu  0.826686
  Cu12     1.0000 0.67772  0.73281  0.29604  Biso   1.000  Cu  0.877951
  Cu13     1.0000 0.96181  0.57132  0.39456  Biso   1.000  Cu  0.852128
  Cu14     1.0000 0.97115  0.67772  0.29604  Biso   1.000  Cu  0.884780
  Cu15     1.0000 0.64363  0.03412  0.39456  Biso   1.000  Cu  0.819410
  Cu16     1.0000 0.73281  0.02624  0.29604  Biso   1.000  Cu  0.866586
  Cu17     1.0000 0.39183  0.93347  0.00000  Biso   1.000  Cu  0.820086
  Cu18     1.0000 0.70543  0.04998  0.00000  Biso   1.000  Cu  0.871256
  Cu19     1.0000 0.60817  0.06653  0.00000  Biso   1.000  Cu  0.853336
  Cu20     1.0000 0.29457  0.95002  0.00000  Biso   1.000  Cu  0.853030
  Cu21     1.0000 0.93347  0.60817  0.00000  Biso   1.000  Cu  0.853155
  Cu22     1.0000 0.04998  0.29457  0.00000  Biso   1.000  Cu  0.871368
  Cu23     1.0000 0.06653  0.39183  0.00000  Biso   1.000  Cu  0.853497
  Cu24     1.0000 0.95002  0.70543  0.00000  Biso   1.000  Cu  0.871186
  H1       1.0000 0.66940  0.06700  0.16420  Biso   1.000  H  0.138688
  H2       1.0000 0.51280  0.07730  0.17660  Biso   1.000  H  0.126832
  H3       1.0000 0.52730  0.06340  0.32620  Biso   1.000  H  0.134835
  H4       1.0000 0.20110  0.96670  0.17260  Biso   1.000  H  0.134968
  H5       1.0000 0.36780  0.98910  0.13600  Biso   1.000  H  0.129525
  H6       1.0000 0.23020  0.99740  0.28880  Biso   1.000  H  0.119877
  H7       1.0000 0.29440  0.01690  0.46920  Biso   1.000  H  0.129935
  H8       1.0000 0.14570  0.05050  0.47080  Biso   1.000  H  0.137866
  H9       1.0000 0.15710  0.02140  0.62760  Biso   1.000  H  0.140787
  H10      1.0000 0.44210  0.07570  0.32840  Biso   1.000  H  0.306351
  H11      1.0000 0.38890  0.01230  0.19460  Biso   1.000  H  0.310971
  H12      1.0000 0.21870  0.04620  0.38460  Biso   1.000  H  0.312095
  H13      1.0000 0.16640  0.76880  0.16420  Biso   1.000  H  0.138702
  H14      1.0000 0.31060  0.74610  0.17660  Biso   1.000  H  0.127158
  H15      1.0000 0.14650  0.61040  0.32620  Biso   1.000  H  0.134722
  H16      1.0000 0.62630  0.86070  0.17260  Biso   1.000  H  0.134457
  H17      1.0000 0.49620  0.87490  0.13600  Biso   1.000  H  0.129209
  H18      1.0000 0.48100  0.71380  0.28880  Biso   1.000  H  0.119460
  H19      1.0000 0.23640  0.51390  0.46920  Biso   1.000  H  0.130275
  H20      1.0000 0.38350  0.47870  0.47080  Biso   1.000  H  0.137994
  H21      1.0000 0.21530  0.35100  0.62760  Biso   1.000  H  0.141042
  H22      1.0000 0.22950  0.59590  0.32840  Biso   1.000  H  0.306390
  H23      1.0000 0.41650  0.79310  0.19460  Biso   1.000  H  0.311026
  H24      1.0000 0.39670  0.56920  0.38460  Biso   1.000  H  0.312154
  H25      1.0000 0.06700  0.16640  0.16420  Biso   1.000  H  0.138689
  H26      1.0000 0.07730  0.31060  0.17660  Biso   1.000  H  0.126825
  H27      1.0000 0.06340  0.14650  0.32620  Biso   1.000  H  0.135030
  H28      1.0000 0.96670  0.62630  0.17260  Biso   1.000  H  0.134530
  H29      1.0000 0.98910  0.49620  0.13600  Biso   1.000  H  0.129021
  H30      1.0000 0.99740  0.48100  0.28880  Biso   1.000  H  0.119479
  H31      1.0000 0.01690  0.23640  0.46920  Biso   1.000  H  0.130315
  H32      1.0000 0.05050  0.38350  0.47080  Biso   1.000  H  0.137822
  H33      1.0000 0.02140  0.21530  0.62760  Biso   1.000  H  0.141075
  H34      1.0000 0.07570  0.22950  0.32840  Biso   1.000  H  0.306464
  H35      1.0000 0.01230  0.41650  0.19460  Biso   1.000  H  0.310808
  H36      1.0000 0.04620  0.39670  0.38460  Biso   1.000  H  0.311999
  H37      1.0000 0.76880  0.66940  0.16420  Biso   1.000  H  0.138380
  H38      1.0000 0.74610  0.51280  0.17660  Biso   1.000  H  0.126668
  H39      1.0000 0.61040  0.52730  0.32620  Biso   1.000  H  0.134645
  H40      1.0000 0.86070  0.20110  0.17260  Biso   1.000  H  0.134730
  H41      1.0000 0.87490  0.36780  0.13600  Biso   1.000  H  0.129164
  H42      1.0000 0.71380  0.23020  0.28880  Biso   1.000  H  0.119866
  H43      1.0000 0.51390  0.29440  0.46920  Biso   1.000  H  0.130238
  H44      1.0000 0.47870  0.14570  0.47080  Biso   1.000  H  0.137544
  H45      1.0000 0.35100  0.15710  0.62760  Biso   1.000  H  0.140742
  H46      1.0000 0.59590  0.44210  0.32840  Biso   1.000  H  0.306403
  H47      1.0000 0.79310  0.38890  0.19460  Biso   1.000  H  0.310882
  H48      1.0000 0.56920  0.21870  0.38460  Biso   1.000  H  0.312034
  H49      1.0000 0.33060  0.93300  0.83580  Biso   1.000  H  0.138710
  H50      1.0000 0.48720  0.92270  0.82340  Biso   1.000  H  0.127162
  H51      1.0000 0.47270  0.93660  0.67380  Biso   1.000  H  0.134759
  H52      1.0000 0.79890  0.03330  0.82740  Biso   1.000  H  0.134722
  H53      1.0000 0.63220  0.01090  0.86400  Biso   1.000  H  0.129399
  H54      1.0000 0.76980  0.00260  0.71120  Biso   1.000  H  0.119814
  H55      1.0000 0.70560  0.98310  0.53080  Biso   1.000  H  0.130273
  H56      1.0000 0.85430  0.94950  0.52920  Biso   1.000  H  0.137972
  H57      1.0000 0.84290  0.97860  0.37240  Biso   1.000  H  0.141065
  H58      1.0000 0.55790  0.92430  0.67160  Biso   1.000  H  0.306447
  H59      1.0000 0.61110  0.98770  0.80540  Biso   1.000  H  0.311115
  H60      1.0000 0.78130  0.95380  0.61540  Biso   1.000  H  0.312153
  H61      1.0000 0.83360  0.23120  0.83580  Biso   1.000  H  0.138670
  H62      1.0000 0.68940  0.25390  0.82340  Biso   1.000  H  0.126843
  H63      1.0000 0.85350  0.38960  0.67380  Biso   1.000  H  0.134860
  H64      1.0000 0.37370  0.13930  0.82740  Biso   1.000  H  0.134949
  H65      1.0000 0.50380  0.12510  0.86400  Biso   1.000  H  0.129493
  H66      1.0000 0.51900  0.28620  0.71120  Biso   1.000  H  0.119923
  H67      1.0000 0.76360  0.48610  0.53080  Biso   1.000  H  0.129741
  H68      1.0000 0.61650  0.52130  0.52920  Biso   1.000  H  0.137457
  H69      1.0000 0.78470  0.64900  0.37240  Biso   1.000  H  0.140460
  H70      1.0000 0.77050  0.40410  0.67160  Biso   1.000  H  0.306379
  H71      1.0000 0.58350  0.20690  0.80540  Biso   1.000  H  0.310905
  H72      1.0000 0.60330  0.43080  0.61540  Biso   1.000  H  0.312026
  H73      1.0000 0.93300  0.83360  0.83580  Biso   1.000  H  0.138676
  H74      1.0000 0.92270  0.68940  0.82340  Biso   1.000  H  0.126813
  H75      1.0000 0.93660  0.85350  0.67380  Biso   1.000  H  0.135005
  H76      1.0000 0.03330  0.37370  0.82740  Biso   1.000  H  0.134742
  H77      1.0000 0.01090  0.50380  0.86400  Biso   1.000  H  0.129170
  H78      1.0000 0.00260  0.51900  0.71120  Biso   1.000  H  0.119867
  H79      1.0000 0.98310  0.76360  0.53080  Biso   1.000  H  0.130177
  H80      1.0000 0.94950  0.61650  0.52920  Biso   1.000  H  0.137544
  H81      1.0000 0.97860  0.78470  0.37240  Biso   1.000  H  0.140763
  H82      1.0000 0.92430  0.77050  0.67160  Biso   1.000  H  0.306473
  H83      1.0000 0.98770  0.58350  0.80540  Biso   1.000  H  0.310870
  H84      1.0000 0.95380  0.60330  0.61540  Biso   1.000  H  0.312048
  H85      1.0000 0.23120  0.33060  0.83580  Biso   1.000  H  0.138665
  H86      1.0000 0.25390  0.48720  0.82340  Biso   1.000  H  0.126830
  H87      1.0000 0.38960  0.47270  0.67380  Biso   1.000  H  0.135051
  H88      1.0000 0.13930  0.79890  0.82740  Biso   1.000  H  0.134492
  H89      1.0000 0.12510  0.63220  0.86400  Biso   1.000  H  0.129050
  H90      1.0000 0.28620  0.76980  0.71120  Biso   1.000  H  0.119523
  H91      1.0000 0.48610  0.70560  0.53080  Biso   1.000  H  0.129960
  H92      1.0000 0.52130  0.85430  0.52920  Biso   1.000  H  0.137603
  H93      1.0000 0.64900  0.84290  0.37240  Biso   1.000  H  0.140795
  H94      1.0000 0.40410  0.55790  0.67160  Biso   1.000  H  0.306501
  H95      1.0000 0.20690  0.61110  0.80540  Biso   1.000  H  0.310793
  H96      1.0000 0.43080  0.78130  0.61540  Biso   1.000  H  0.311881
  N1       1.0000 0.34850  0.05595  0.34786  Biso   1.000  N  -0.556612
  N2       1.0000 0.29777  0.03216  0.30684  Biso   1.000  N  -0.563068
  N3       1.0000 0.40149  0.03752  0.25852  Biso   1.000  N  -0.567538
  N4       1.0000 0.44827  0.06640  0.29908  Biso   1.000  N  -0.393916
  N5       1.0000 0.35283  0.01356  0.22110  Biso   1.000  N  -0.395307
  N6       1.0000 0.24529  0.04249  0.39540  Biso   1.000  N  -0.407374
  N7       1.0000 0.30364  0.59619  0.34786  Biso   1.000  N  -0.556679
  N8       1.0000 0.39539  0.66100  0.30684  Biso   1.000  N  -0.563006
  N9       1.0000 0.33999  0.70396  0.25852  Biso   1.000  N  -0.567334
  N10      1.0000 0.25265  0.63452  0.29908  Biso   1.000  N  -0.393970
  N11      1.0000 0.42607  0.76534  0.22110  Biso   1.000  N  -0.395392
  N12      1.0000 0.35931  0.56211  0.39540  Biso   1.000  N  -0.407381
  N13      1.0000 0.05595  0.30364  0.34786  Biso   1.000  N  -0.556491
  N14      1.0000 0.03216  0.39539  0.30684  Biso   1.000  N  -0.563163
  N15      1.0000 0.03752  0.33999  0.25852  Biso   1.000  N  -0.567578
  N16      1.0000 0.06640  0.25265  0.29908  Biso   1.000  N  -0.393834
  N17      1.0000 0.01356  0.42607  0.22110  Biso   1.000  N  -0.395450
  N18      1.0000 0.04249  0.35931  0.39540  Biso   1.000  N  -0.407393
  N19      1.0000 0.59619  0.34850  0.34786  Biso   1.000  N  -0.556469
  N20      1.0000 0.66100  0.29777  0.30684  Biso   1.000  N  -0.563289
  N21      1.0000 0.70396  0.40149  0.25852  Biso   1.000  N  -0.567573
  N22      1.0000 0.63452  0.44827  0.29908  Biso   1.000  N  -0.393894
  N23      1.0000 0.76534  0.35283  0.22110  Biso   1.000  N  -0.395490
  N24      1.0000 0.56211  0.24529  0.39540  Biso   1.000  N  -0.407499
  N25      1.0000 0.65150  0.94405  0.65214  Biso   1.000  N  -0.556508
  N26      1.0000 0.70223  0.96784  0.69316  Biso   1.000  N  -0.563031
  N27      1.0000 0.59851  0.96248  0.74148  Biso   1.000  N  -0.567290
  N28      1.0000 0.55173  0.93360  0.70092  Biso   1.000  N  -0.393907
  N29      1.0000 0.64717  0.98644  0.77890  Biso   1.000  N  -0.395342
  N30      1.0000 0.75471  0.95751  0.60460  Biso   1.000  N  -0.407324
  N31      1.0000 0.69636  0.40381  0.65214  Biso   1.000  N  -0.556452
  N32      1.0000 0.60461  0.33900  0.69316  Biso   1.000  N  -0.563148
  N33      1.0000 0.66001  0.29604  0.74148  Biso   1.000  N  -0.567788
  N34      1.0000 0.74735  0.36548  0.70092  Biso   1.000  N  -0.393980
  N35      1.0000 0.57393  0.23466  0.77890  Biso   1.000  N  -0.395382
  N36      1.0000 0.64069  0.43789  0.60460  Biso   1.000  N  -0.407433
  N37      1.0000 0.94405  0.69636  0.65214  Biso   1.000  N  -0.556345
  N38      1.0000 0.96784  0.60461  0.69316  Biso   1.000  N  -0.563127
  N39      1.0000 0.96248  0.66001  0.74148  Biso   1.000  N  -0.567619
  N40      1.0000 0.93360  0.74735  0.70092  Biso   1.000  N  -0.393830
  N41      1.0000 0.98644  0.57393  0.77890  Biso   1.000  N  -0.395440
  N42      1.0000 0.95751  0.64069  0.60460  Biso   1.000  N  -0.407417
  N43      1.0000 0.40381  0.65150  0.65214  Biso   1.000  N  -0.556354
  N44      1.0000 0.33900  0.70223  0.69316  Biso   1.000  N  -0.563364
  N45      1.0000 0.29604  0.59851  0.74148  Biso   1.000  N  -0.567817
  N46      1.0000 0.36548  0.55173  0.70092  Biso   1.000  N  -0.393869
  N47      1.0000 0.23466  0.64717  0.77890  Biso   1.000  N  -0.395532
  N48      1.0000 0.43789  0.75471  0.60460  Biso   1.000  N  -0.407456
  O1       1.0000 0.35768  0.95020  0.07222  Biso   1.000  O  -0.531663
  O2       1.0000 0.58767  0.07700  0.07430  Biso   1.000  O  -0.526488
  O3       1.0000 0.67079  0.06462  0.07316  Biso   1.000  O  -0.525744
  O4       1.0000 0.05727  0.03038  0.65032  Biso   1.000  O  -0.512188
  O5       1.0000 0.05309  0.04948  0.56024  Biso   1.000  O  -0.525313
  O6       1.0000 0.30976  0.98549  0.56344  Biso   1.000  O  -0.519211
  O7       1.0000 0.24057  0.00165  0.64162  Biso   1.000  O  -0.538429
  O8       1.0000 0.10985  0.97242  0.25744  Biso   1.000  O  -0.534002
  O9       1.0000 0.12150  0.97598  0.33326  Biso   1.000  O  -0.517429
  O10      1.0000 0.27465  0.96369  0.07244  Biso   1.000  O  -0.527643
  O11      1.0000 0.61125  0.05107  0.33838  Biso   1.000  O  -0.544819
  O12      1.0000 0.69055  0.05284  0.24994  Biso   1.000  O  -0.516820
  O13      1.0000 0.57010  0.97758  0.07222  Biso   1.000  O  -0.536074
  O14      1.0000 0.33803  0.84870  0.07430  Biso   1.000  O  -0.520564
  O15      1.0000 0.25605  0.86222  0.07316  Biso   1.000  O  -0.519094
  O16      1.0000 0.29241  0.31930  0.65032  Biso   1.000  O  -0.512083
  O17      1.0000 0.38667  0.39028  0.56024  Biso   1.000  O  -0.525210
  O18      1.0000 0.12680  0.45107  0.56344  Biso   1.000  O  -0.513119
  O19      1.0000 0.11781  0.35673  0.64162  Biso   1.000  O  -0.532024
  O20      1.0000 0.63271  0.77014  0.25744  Biso   1.000  O  -0.537553
  O21      1.0000 0.54524  0.69076  0.33326  Biso   1.000  O  -0.517439
  O22      1.0000 0.65291  0.96387  0.07244  Biso   1.000  O  -0.533438
  O23      1.0000 0.05037  0.61055  0.33838  Biso   1.000  O  -0.550131
  O24      1.0000 0.05951  0.69722  0.24994  Biso   1.000  O  -0.522961
  O25      1.0000 0.95020  0.57010  0.07222  Biso   1.000  O  -0.536471
  O26      1.0000 0.07700  0.33803  0.07430  Biso   1.000  O  -0.526358
  O27      1.0000 0.06462  0.25605  0.07316  Biso   1.000  O  -0.525638
  O28      1.0000 0.03038  0.29241  0.65032  Biso   1.000  O  -0.512034
  O29      1.0000 0.04948  0.38667  0.56024  Biso   1.000  O  -0.525466
  O30      1.0000 0.98549  0.12680  0.56344  Biso   1.000  O  -0.513111
  O31      1.0000 0.00165  0.11781  0.64162  Biso   1.000  O  -0.532016
  O32      1.0000 0.97242  0.63271  0.25744  Biso   1.000  O  -0.540364
  O33      1.0000 0.97598  0.54524  0.33326  Biso   1.000  O  -0.522689
  O34      1.0000 0.96369  0.65291  0.07244  Biso   1.000  O  -0.533440
  O35      1.0000 0.05107  0.05037  0.33838  Biso   1.000  O  -0.544615
  O36      1.0000 0.05284  0.05951  0.24994  Biso   1.000  O  -0.516939
  O37      1.0000 0.97758  0.35768  0.07222  Biso   1.000  O  -0.536290
  O38      1.0000 0.84870  0.58767  0.07430  Biso   1.000  O  -0.526375
  O39      1.0000 0.86222  0.67079  0.07316  Biso   1.000  O  -0.525696
  O40      1.0000 0.31930  0.05727  0.65032  Biso   1.000  O  -0.518655
  O41      1.0000 0.39028  0.05309  0.56024  Biso   1.000  O  -0.531378
  O42      1.0000 0.45107  0.30976  0.56344  Biso   1.000  O  -0.513112
  O43      1.0000 0.35673  0.24057  0.64162  Biso   1.000  O  -0.532084
  O44      1.0000 0.77014  0.10985  0.25744  Biso   1.000  O  -0.534229
  O45      1.0000 0.69076  0.12150  0.33326  Biso   1.000  O  -0.517570
  O46      1.0000 0.96387  0.27465  0.07244  Biso   1.000  O  -0.533326
  O47      1.0000 0.61055  0.61125  0.33838  Biso   1.000  O  -0.544523
  O48      1.0000 0.69722  0.69055  0.24994  Biso   1.000  O  -0.520400
  O49      1.0000 0.64232  0.04980  0.92778  Biso   1.000  O  -0.536095
  O50      1.0000 0.41233  0.92300  0.92570  Biso   1.000  O  -0.520579
  O51      1.0000 0.32921  0.93538  0.92684  Biso   1.000  O  -0.519085
  O52      1.0000 0.94273  0.96962  0.34968  Biso   1.000  O  -0.512061
  O53      1.0000 0.94691  0.95052  0.43976  Biso   1.000  O  -0.525228
  O54      1.0000 0.69024  0.01451  0.43656  Biso   1.000  O  -0.513171
  O55      1.0000 0.75943  0.99835  0.35838  Biso   1.000  O  -0.531972
  O56      1.0000 0.89015  0.02758  0.74256  Biso   1.000  O  -0.534166
  O57      1.0000 0.87850  0.02402  0.66674  Biso   1.000  O  -0.517520
  O58      1.0000 0.72535  0.03631  0.92756  Biso   1.000  O  -0.533452
  O59      1.0000 0.38875  0.94893  0.66162  Biso   1.000  O  -0.549900
  O60      1.0000 0.30945  0.94716  0.75006  Biso   1.000  O  -0.522803
  O61      1.0000 0.42990  0.02242  0.92778  Biso   1.000  O  -0.531728
  O62      1.0000 0.66197  0.15130  0.92570  Biso   1.000  O  -0.526545
  O63      1.0000 0.74395  0.13778  0.92684  Biso   1.000  O  -0.525864
  O64      1.0000 0.70759  0.68070  0.34968  Biso   1.000  O  -0.516385
  O65      1.0000 0.61333  0.60972  0.43976  Biso   1.000  O  -0.526278
  O66      1.0000 0.87320  0.54893  0.43656  Biso   1.000  O  -0.519251
  O67      1.0000 0.88219  0.64327  0.35838  Biso   1.000  O  -0.538444
  O68      1.0000 0.36729  0.22986  0.74256  Biso   1.000  O  -0.534019
  O69      1.0000 0.45476  0.30924  0.66674  Biso   1.000  O  -0.517336
  O70      1.0000 0.34709  0.03613  0.92756  Biso   1.000  O  -0.527643
  O71      1.0000 0.94963  0.38945  0.66162  Biso   1.000  O  -0.544803
  O72      1.0000 0.94049  0.30278  0.75006  Biso   1.000  O  -0.516820
  O73      1.0000 0.04980  0.42990  0.92778  Biso   1.000  O  -0.536269
  O74      1.0000 0.92300  0.66197  0.92570  Biso   1.000  O  -0.526444
  O75      1.0000 0.93538  0.74395  0.92684  Biso   1.000  O  -0.525745
  O76      1.0000 0.96962  0.70759  0.34968  Biso   1.000  O  -0.518714
  O77      1.0000 0.95052  0.61333  0.43976  Biso   1.000  O  -0.531410
  O78      1.0000 0.01451  0.87320  0.43656  Biso   1.000  O  -0.513175
  O79      1.0000 0.99835  0.88219  0.35838  Biso   1.000  O  -0.532028
  O80      1.0000 0.02758  0.36729  0.74256  Biso   1.000  O  -0.534129
  O81      1.0000 0.02402  0.45476  0.66674  Biso   1.000  O  -0.517444
  O82      1.0000 0.03631  0.34709  0.92756  Biso   1.000  O  -0.533321
  O83      1.0000 0.94893  0.94963  0.66162  Biso   1.000  O  -0.544530
  O84      1.0000 0.94716  0.94049  0.75006  Biso   1.000  O  -0.516836
  O85      1.0000 0.02242  0.64232  0.92778  Biso   1.000  O  -0.536587
  O86      1.0000 0.15130  0.41233  0.92570  Biso   1.000  O  -0.526350
  O87      1.0000 0.13778  0.32921  0.92684  Biso   1.000  O  -0.525643
  O88      1.0000 0.68070  0.94273  0.34968  Biso   1.000  O  -0.511998
  O89      1.0000 0.60972  0.94691  0.43976  Biso   1.000  O  -0.525447
  O90      1.0000 0.54893  0.69024  0.43656  Biso   1.000  O  -0.514154
  O91      1.0000 0.64327  0.75943  0.35838  Biso   1.000  O  -0.535743
  O92      1.0000 0.22986  0.89015  0.74256  Biso   1.000  O  -0.540374
  O93      1.0000 0.30924  0.87850  0.66674  Biso   1.000  O  -0.522544
  O94      1.0000 0.03613  0.72535  0.92756  Biso   1.000  O  -0.533580
  O95      1.0000 0.38945  0.38875  0.66162  Biso   1.000  O  -0.544573
  O96      1.0000 0.30278  0.30945  0.75006  Biso   1.000  O  -0.516916
