
##########################################################################
#               Crystallographic Information Format file
#               Produced by PyCifRW module
#
#  This is a CIF file.  CIF has been adopted by the International
#  Union of Crystallography as the standard for data archiving and
#  transmission.
#
#  For information on this file format, follow the CIF links at
#  http://www.iucr.org
##########################################################################

data_image0

_cell_length_a                          8.5851
_cell_length_b                          15.4118
_cell_length_c                          28.0467
_cell_angle_alpha                       90
_cell_angle_beta                        90
_cell_angle_gamma                       90
_symmetry_space_group_name_H-M          'P 1'
_symmetry_int_tables_number             1
loop_
  _symmetry_equiv_pos_as_xyz
         'x, y, z' 
loop_
  _atom_site_label
  _atom_site_occupancy
  _atom_site_fract_x
  _atom_site_fract_y
  _atom_site_fract_z
  _atom_site_thermal_displace_type
  _atom_site_B_iso_or_equiv
  _atom_site_type_symbol
  _atom_site_charge
         C1        1.0000    0.47020   0.08760   0.44900   Biso      1.000     C          -0.17399  
         C2        1.0000    0.86990   0.47760   0.56580   Biso      1.000     C          0.06981   
         C3        1.0000    0.28860   0.36910   0.72480   Biso      1.000     C          -0.16261199999999998          
         C4        1.0000    0.19400   0.30440   0.71120   Biso      1.000     C          0.091123  
         C5        1.0000    0.14790   0.27010   0.66410   Biso      1.000     C          0.62436   
         C6        1.0000    0.02980   0.58760   0.55100   Biso      1.000     C          -0.173991           
         C7        1.0000    0.01310   0.50970   0.57650   Biso      1.000     C          -0.17194600000000002          
         C8        1.0000    0.89760   0.59890   0.52580   Biso      1.000     C          0.079356  
         C9        1.0000    0.79610   0.39420   0.57750   Biso      1.000     C          0.628393  
         C10       1.0000    0.85210   0.66480   0.48980   Biso      1.000     C          0.6482720000000001  
         C11       1.0000    0.63010   0.97760   0.06580   Biso      1.000     C          0.06981   
         C12       1.0000    0.64790   0.16480   0.51020   Biso      1.000     C          0.6482720000000001  
         C13       1.0000    0.21140   0.86910   0.22480   Biso      1.000     C          -0.16261199999999998          
         C14       1.0000    0.47020   0.08760   0.05100   Biso      1.000     C          -0.173991           
         C15       1.0000    0.48690   0.00970   0.07650   Biso      1.000     C          -0.17194600000000002          
         C16       1.0000    0.60240   0.09890   0.02580   Biso      1.000     C          0.079356  
         C17       1.0000    0.70390   0.89420   0.07750   Biso      1.000     C          0.628393  
         C18       1.0000    0.64790   0.16480   0.98980   Biso      1.000     C          0.6482720000000001  
         C19       1.0000    0.86990   0.47760   0.93420   Biso      1.000     C          0.06981   
         C20       1.0000    0.28860   0.36910   0.77520   Biso      1.000     C          -0.162613           
         C21       1.0000    0.19400   0.30440   0.78880   Biso      1.000     C          0.091123  
         C22       1.0000    0.14790   0.27010   0.83590   Biso      1.000     C          0.62436   
         C23       1.0000    0.02980   0.58760   0.94900   Biso      1.000     C          -0.173991           
         C24       1.0000    0.30600   0.80440   0.21120   Biso      1.000     C          0.091123  
         C25       1.0000    0.01310   0.50970   0.92350   Biso      1.000     C          -0.17194600000000002          
         C26       1.0000    0.70390   0.89420   0.42250   Biso      1.000     C          0.6283920000000001  
         C27       1.0000    0.48690   0.00970   0.42350   Biso      1.000     C          -0.171957           
         C28       1.0000    0.36990   0.02240   0.93420   Biso      1.000     C          0.06981   
         C29       1.0000    0.78860   0.13090   0.77520   Biso      1.000     C          -0.162615           
         C30       1.0000    0.69400   0.19560   0.78880   Biso      1.000     C          0.091123  
         C31       1.0000    0.64790   0.22990   0.83590   Biso      1.000     C          0.62436   
         C32       1.0000    0.52980   0.91240   0.94900   Biso      1.000     C          -0.173991           
         C33       1.0000    0.51310   0.99030   0.92350   Biso      1.000     C          -0.17194600000000002          
         C34       1.0000    0.39760   0.90110   0.97420   Biso      1.000     C          0.079356  
         C35       1.0000    0.29610   0.10580   0.92250   Biso      1.000     C          0.628393  
         C36       1.0000    0.35210   0.83520   0.01020   Biso      1.000     C          0.6482720000000001  
         C37       1.0000    0.13010   0.52240   0.06580   Biso      1.000     C          0.06981   
         C38       1.0000    0.60240   0.09890   0.47420   Biso      1.000     C          0.079356  
         C39       1.0000    0.71140   0.63090   0.22480   Biso      1.000     C          -0.162615           
         C40       1.0000    0.85210   0.72990   0.16410   Biso      1.000     C          0.62436   
         C41       1.0000    0.97020   0.41240   0.05100   Biso      1.000     C          -0.173991           
         C42       1.0000    0.98690   0.49030   0.07650   Biso      1.000     C          -0.17194600000000002          
         C43       1.0000    0.10240   0.40110   0.02580   Biso      1.000     C          0.079356  
         C44       1.0000    0.20390   0.60580   0.07750   Biso      1.000     C          0.628393  
         C45       1.0000    0.14790   0.33520   0.98980   Biso      1.000     C          0.6482720000000001  
         C46       1.0000    0.63010   0.97760   0.43420   Biso      1.000     C          0.06982000000000001           
         C47       1.0000    0.21140   0.86910   0.27520   Biso      1.000     C          -0.162613           
         C48       1.0000    0.30600   0.80440   0.28880   Biso      1.000     C          0.091123  
         C49       1.0000    0.35210   0.77010   0.33590   Biso      1.000     C          0.62436   
         C50       1.0000    0.80600   0.69560   0.21120   Biso      1.000     C          0.091123  
         C51       1.0000    0.89760   0.59890   0.97420   Biso      1.000     C          0.079356  
         C52       1.0000    0.35210   0.77010   0.16410   Biso      1.000     C          0.62436   
         C53       1.0000    0.85210   0.66480   0.01020   Biso      1.000     C          0.6482720000000001  
         C54       1.0000    0.79610   0.39420   0.92250   Biso      1.000     C          0.628393  
         C55       1.0000    0.14790   0.33520   0.51020   Biso      1.000     C          0.648274  
         C56       1.0000    0.20390   0.60580   0.42250   Biso      1.000     C          0.6283920000000001  
         C57       1.0000    0.10240   0.40110   0.47420   Biso      1.000     C          0.079337  
         C58       1.0000    0.98690   0.49030   0.42350   Biso      1.000     C          -0.17196  
         C59       1.0000    0.85210   0.72990   0.33590   Biso      1.000     C          0.6243609999999999  
         C60       1.0000    0.80600   0.69560   0.28880   Biso      1.000     C          0.09110399999999999           
         C61       1.0000    0.71140   0.63090   0.27520   Biso      1.000     C          -0.16259200000000001          
         C62       1.0000    0.13010   0.52240   0.43420   Biso      1.000     C          0.06982000000000001           
         C63       1.0000    0.97020   0.41240   0.44900   Biso      1.000     C          -0.173969           
         C64       1.0000    0.29610   0.10580   0.57750   Biso      1.000     C          0.6283920000000001  
         C65       1.0000    0.39760   0.90110   0.52580   Biso      1.000     C          0.079337  
         C66       1.0000    0.51310   0.99030   0.57650   Biso      1.000     C          -0.17196  
         C67       1.0000    0.52980   0.91240   0.55100   Biso      1.000     C          -0.173969           
         C68       1.0000    0.64790   0.22990   0.66410   Biso      1.000     C          0.6243609999999999  
         C69       1.0000    0.69400   0.19560   0.71120   Biso      1.000     C          0.09110399999999999           
         C70       1.0000    0.78860   0.13090   0.72480   Biso      1.000     C          -0.16259200000000001          
         C71       1.0000    0.35210   0.83520   0.48980   Biso      1.000     C          0.648274  
         C72       1.0000    0.36990   0.02240   0.56580   Biso      1.000     C          0.06982000000000001           
         H1        1.0000    0.38430   0.12430   0.05140   Biso      1.000     H          0.15773399999999999           
         H2        1.0000    0.41380   0.98480   0.09680   Biso      1.000     H          0.1496    
         H3        1.0000    0.34340   0.40660   0.79510   Biso      1.000     H          0.14929800000000001           
         H4        1.0000    0.11570   0.62430   0.94860   Biso      1.000     H          0.15773399999999999           
         H5        1.0000    0.65660   0.59340   0.29510   Biso      1.000     H          0.149296  
         H6        1.0000    0.61570   0.87570   0.55140   Biso      1.000     H          0.15773199999999998           
         H7        1.0000    0.58620   0.01520   0.59680   Biso      1.000     H          0.149601  
         H8        1.0000    0.88430   0.37570   0.44860   Biso      1.000     H          0.15773199999999998           
         H9        1.0000    0.15660   0.90660   0.20490   Biso      1.000     H          0.14929800000000001           
         H10       1.0000    0.91380   0.51520   0.40320   Biso      1.000     H          0.149601  
         H11       1.0000    0.84340   0.09340   0.70490   Biso      1.000     H          0.149296  
         H12       1.0000    0.08620   0.48480   0.59680   Biso      1.000     H          0.1496    
         H13       1.0000    0.08620   0.48480   0.90320   Biso      1.000     H          0.1496    
         H14       1.0000    0.34340   0.40660   0.70490   Biso      1.000     H          0.14929800000000001           
         H15       1.0000    0.11570   0.62430   0.55140   Biso      1.000     H          0.15773399999999999           
         H16       1.0000    0.84340   0.09340   0.79510   Biso      1.000     H          0.14929800000000001           
         H17       1.0000    0.61570   0.87570   0.94860   Biso      1.000     H          0.15773399999999999           
         H18       1.0000    0.65660   0.59340   0.20490   Biso      1.000     H          0.14929800000000001           
         H19       1.0000    0.88430   0.37570   0.05140   Biso      1.000     H          0.15773399999999999           
         H20       1.0000    0.58620   0.01520   0.90320   Biso      1.000     H          0.1496    
         H21       1.0000    0.15660   0.90660   0.29510   Biso      1.000     H          0.14929800000000001           
         H22       1.0000    0.38430   0.12430   0.44860   Biso      1.000     H          0.15773299999999998           
         H23       1.0000    0.41380   0.98480   0.40320   Biso      1.000     H          0.149601  
         H24       1.0000    0.91380   0.51520   0.09680   Biso      1.000     H          0.1496    
         O1        1.0000    0.78460   0.16140   0.52580   Biso      1.000     O          -0.682299           
         O2        1.0000    0.62440   0.84440   0.39699   Biso      1.000     O          -0.660096           
         O3        1.0000    0.83680   0.87940   0.43894   Biso      1.000     O          -0.6909890000000001           
         O4        1.0000    0.70440   0.03290   0.46535   Biso      1.000     O          -0.097903           
         O5        1.0000    0.54370   0.21690   0.52197   Biso      1.000     O          -0.654373           
         O6        1.0000    0.20680   0.30370   0.62736   Biso      1.000     O          -0.743961           
         O7        1.0000    0.95630   0.71690   0.47803   Biso      1.000     O          -0.654373           
         O8        1.0000    0.66320   0.37940   0.56106   Biso      1.000     O          -0.6909890000000001           
         O9        1.0000    0.87560   0.34440   0.60301   Biso      1.000     O          -0.660096           
         O10       1.0000    0.79560   0.53290   0.53465   Biso      1.000     O          -0.097903           
         O11       1.0000    0.45020   0.70960   0.33743   Biso      1.000     O          -0.6472140000000001           
         O12       1.0000    0.71540   0.66140   0.47420   Biso      1.000     O          -0.682299           
         O13       1.0000    0.29320   0.80370   0.12736   Biso      1.000     O          -0.743961           
         O14       1.0000    0.04980   0.20960   0.66257   Biso      1.000     O          -0.6472140000000001           
         O15       1.0000    0.29320   0.80370   0.37264   Biso      1.000     O          -0.743961           
         O16       1.0000    0.95020   0.79040   0.16257   Biso      1.000     O          -0.647213           
         O17       1.0000    0.04370   0.28310   0.97803   Biso      1.000     O          -0.654373           
         O18       1.0000    0.45630   0.78310   0.02197   Biso      1.000     O          -0.654373           
         O19       1.0000    0.45020   0.70960   0.16257   Biso      1.000     O          -0.647213           
         O20       1.0000    0.29560   0.96710   0.96535   Biso      1.000     O          -0.097902           
         O21       1.0000    0.37560   0.15560   0.89699   Biso      1.000     O          -0.660096           
         O22       1.0000    0.16320   0.12060   0.93894   Biso      1.000     O          -0.6909890000000001           
         O23       1.0000    0.54980   0.29040   0.83743   Biso      1.000     O          -0.647213           
         O24       1.0000    0.28460   0.33860   0.97420   Biso      1.000     O          -0.682299           
         O25       1.0000    0.70680   0.19630   0.87264   Biso      1.000     O          -0.743961           
         O26       1.0000    0.63420   0.23690   0.75000   Biso      1.000     O          -0.08631  
         O27       1.0000    0.21540   0.83860   0.02580   Biso      1.000     O          -0.682299           
         O28       1.0000    0.79320   0.69630   0.12736   Biso      1.000     O          -0.743961           
         O29       1.0000    0.33680   0.62060   0.06106   Biso      1.000     O          -0.6909890000000001           
         O30       1.0000    0.12440   0.65560   0.10301   Biso      1.000     O          -0.660096           
         O31       1.0000    0.20440   0.46710   0.03465   Biso      1.000     O          -0.097902           
         O32       1.0000    0.86580   0.73690   0.25000   Biso      1.000     O          -0.08631  
         O33       1.0000    0.83680   0.87940   0.06106   Biso      1.000     O          -0.6909890000000001           
         O34       1.0000    0.36580   0.76310   0.25000   Biso      1.000     O          -0.086311           
         O35       1.0000    0.70440   0.03290   0.03465   Biso      1.000     O          -0.097902           
         O36       1.0000    0.13420   0.26310   0.75000   Biso      1.000     O          -0.086311           
         O37       1.0000    0.28460   0.33860   0.52580   Biso      1.000     O          -0.682299           
         O38       1.0000    0.04370   0.28310   0.52197   Biso      1.000     O          -0.654374           
         O39       1.0000    0.20440   0.46710   0.46535   Biso      1.000     O          -0.097902           
         O40       1.0000    0.12440   0.65560   0.39699   Biso      1.000     O          -0.660095           
         O41       1.0000    0.33680   0.62060   0.43894   Biso      1.000     O          -0.6909890000000001           
         O42       1.0000    0.95020   0.79040   0.33743   Biso      1.000     O          -0.6472140000000001           
         O43       1.0000    0.79320   0.69630   0.37264   Biso      1.000     O          -0.743961           
         O44       1.0000    0.62440   0.84440   0.10301   Biso      1.000     O          -0.660096           
         O45       1.0000    0.45630   0.78310   0.47803   Biso      1.000     O          -0.654374           
         O46       1.0000    0.29560   0.96710   0.53465   Biso      1.000     O          -0.097902           
         O47       1.0000    0.37560   0.15560   0.60301   Biso      1.000     O          -0.660095           
         O48       1.0000    0.21540   0.83860   0.47420   Biso      1.000     O          -0.682299           
         O49       1.0000    0.54980   0.29040   0.66257   Biso      1.000     O          -0.6472140000000001           
         O50       1.0000    0.54370   0.21690   0.97803   Biso      1.000     O          -0.654373           
         O51       1.0000    0.16320   0.12060   0.56106   Biso      1.000     O          -0.6909890000000001           
         O52       1.0000    0.20680   0.30370   0.87264   Biso      1.000     O          -0.743961           
         O53       1.0000    0.04980   0.20960   0.83743   Biso      1.000     O          -0.647213           
         O54       1.0000    0.66320   0.37940   0.93894   Biso      1.000     O          -0.6909890000000001           
         O55       1.0000    0.78460   0.16140   0.97420   Biso      1.000     O          -0.682299           
         O56       1.0000    0.79560   0.53290   0.96535   Biso      1.000     O          -0.097902           
         O57       1.0000    0.95630   0.71690   0.02197   Biso      1.000     O          -0.654373           
         O58       1.0000    0.71540   0.66140   0.02580   Biso      1.000     O          -0.682299           
         O59       1.0000    0.70680   0.19630   0.62736   Biso      1.000     O          -0.743961           
         O60       1.0000    0.87560   0.34440   0.89699   Biso      1.000     O          -0.660096           
         Tb1       1.0000    0.44840   0.29758   0.91386   Biso      1.000     Tb          2.130594  
         Tb2       1.0000    0.05160   0.79758   0.08614   Biso      1.000     Tb          2.130594  
         Tb3       1.0000    0.55160   0.70242   0.41386   Biso      1.000     Tb          2.130594  
         Tb4       1.0000    0.94840   0.20242   0.58614   Biso      1.000     Tb          2.130594  
         Tb5       1.0000    0.55160   0.70242   0.08614   Biso      1.000     Tb          2.130594  
         Tb6       1.0000    0.94840   0.20242   0.91386   Biso      1.000     Tb          2.130594  
         Tb7       1.0000    0.44840   0.29758   0.58614   Biso      1.000     Tb          2.130594  
         Tb8       1.0000    0.05160   0.79758   0.41386   Biso      1.000     Tb          2.130594 