data_image0
_cell_length_a       9.0389
_cell_length_b       24.498
_cell_length_c       45.853
_cell_angle_alpha    90
_cell_angle_beta     90
_cell_angle_gamma    90

_symmetry_space_group_name_H-M    "P 1"
_symmetry_int_tables_number       1

loop_
  _symmetry_equiv_pos_as_xyz
  'x, y, z'

loop_
  _atom_site_label
  _atom_site_occupancy
  _atom_site_fract_x
  _atom_site_fract_y
  _atom_site_fract_z
  _atom_site_thermal_displace_type
  _atom_site_B_iso_or_equiv
  _atom_site_type_symbol
  _atom_site_charge
  C1       1.0000 0.90080  0.45103  0.81012  Biso   1.000  C  0.611978
  C2       1.0000 0.88640  0.40775  0.78856  Biso   1.000  C  -0.032141
  C3       1.0000 0.93870  0.41240  0.76036  Biso   1.000  C  -0.093901
  C4       1.0000 0.93190  0.37033  0.74028  Biso   1.000  C  -0.155690
  C5       1.0000 0.86720  0.32138  0.74857  Biso   1.000  C  0.091556
  C6       1.0000 0.81460  0.31617  0.77642  Biso   1.000  C  -0.139570
  C7       1.0000 0.82430  0.35741  0.79639  Biso   1.000  C  -0.082007
  C8       1.0000 0.86290  0.27385  0.72792  Biso   1.000  C  0.066331
  C9       1.0000 0.97010  0.26450  0.70671  Biso   1.000  C  -0.154442
  C10      1.0000 0.97210  0.21785  0.69077  Biso   1.000  C  -0.094453
  C11      1.0000 0.86820  0.17735  0.69501  Biso   1.000  C  -0.029351
  C12      1.0000 0.75400  0.18705  0.71493  Biso   1.000  C  -0.102689
  C13      1.0000 0.75010  0.23372  0.73066  Biso   1.000  C  -0.145504
  C14      1.0000 0.88180  0.12185  0.68089  Biso   1.000  C  0.630154
  C15      1.0000 0.36670  0.52118  0.92326  Biso   1.000  C  -0.100242
  C16      1.0000 0.36490  0.52350  0.95330  Biso   1.000  C  -0.143790
  C17      1.0000 0.20330  0.45620  0.01628  Biso   1.000  C  -0.189748
  C18      1.0000 0.21040  0.46000  0.04935  Biso   1.000  C  -0.096550
  C19      1.0000 0.40080  0.04897  0.68988  Biso   1.000  C  0.611978
  C20      1.0000 0.38640  0.09225  0.71144  Biso   1.000  C  -0.032141
  C21      1.0000 0.43870  0.08760  0.73964  Biso   1.000  C  -0.093901
  C22      1.0000 0.43190  0.12967  0.75972  Biso   1.000  C  -0.155690
  C23      1.0000 0.36720  0.17862  0.75143  Biso   1.000  C  0.091555
  C24      1.0000 0.31460  0.18383  0.72358  Biso   1.000  C  -0.139569
  C25      1.0000 0.32430  0.14259  0.70361  Biso   1.000  C  -0.082007
  C26      1.0000 0.36290  0.22615  0.77208  Biso   1.000  C  0.066331
  C27      1.0000 0.47010  0.23550  0.79329  Biso   1.000  C  -0.154442
  C28      1.0000 0.47210  0.28215  0.80923  Biso   1.000  C  -0.094452
  C29      1.0000 0.36820  0.32265  0.80499  Biso   1.000  C  -0.029351
  C30      1.0000 0.25400  0.31295  0.78507  Biso   1.000  C  -0.102690
  C31      1.0000 0.25010  0.26628  0.76934  Biso   1.000  C  -0.145504
  C32      1.0000 0.38180  0.37815  0.81911  Biso   1.000  C  0.630154
  C33      1.0000 0.86670  0.97882  0.57674  Biso   1.000  C  -0.100242
  C34      1.0000 0.86490  0.97650  0.54670  Biso   1.000  C  -0.143790
  C35      1.0000 0.70330  0.04380  0.48372  Biso   1.000  C  -0.189748
  C36      1.0000 0.71040  0.04000  0.45065  Biso   1.000  C  -0.096550
  C37      1.0000 0.59920  0.54897  0.81012  Biso   1.000  C  0.611978
  C38      1.0000 0.61360  0.59225  0.78856  Biso   1.000  C  -0.032141
  C39      1.0000 0.56130  0.58760  0.76036  Biso   1.000  C  -0.093901
  C40      1.0000 0.56810  0.62967  0.74028  Biso   1.000  C  -0.155690
  C41      1.0000 0.63280  0.67862  0.74857  Biso   1.000  C  0.091556
  C42      1.0000 0.68540  0.68383  0.77642  Biso   1.000  C  -0.139570
  C43      1.0000 0.67570  0.64259  0.79639  Biso   1.000  C  -0.082007
  C44      1.0000 0.63710  0.72615  0.72792  Biso   1.000  C  0.066331
  C45      1.0000 0.52990  0.73550  0.70671  Biso   1.000  C  -0.154442
  C46      1.0000 0.52790  0.78215  0.69077  Biso   1.000  C  -0.094453
  C47      1.0000 0.63180  0.82265  0.69501  Biso   1.000  C  -0.029351
  C48      1.0000 0.74600  0.81295  0.71493  Biso   1.000  C  -0.102689
  C49      1.0000 0.74990  0.76628  0.73066  Biso   1.000  C  -0.145504
  C50      1.0000 0.61820  0.87815  0.68089  Biso   1.000  C  0.630154
  C51      1.0000 0.13330  0.47882  0.92326  Biso   1.000  C  -0.100242
  C52      1.0000 0.13510  0.47650  0.95330  Biso   1.000  C  -0.143790
  C53      1.0000 0.29670  0.54380  0.01628  Biso   1.000  C  -0.189748
  C54      1.0000 0.28960  0.54000  0.04935  Biso   1.000  C  -0.096550
  C55      1.0000 0.09920  0.95103  0.68988  Biso   1.000  C  0.611978
  C56      1.0000 0.11360  0.90775  0.71144  Biso   1.000  C  -0.032141
  C57      1.0000 0.06130  0.91240  0.73964  Biso   1.000  C  -0.093901
  C58      1.0000 0.06810  0.87033  0.75972  Biso   1.000  C  -0.155690
  C59      1.0000 0.13280  0.82138  0.75143  Biso   1.000  C  0.091555
  C60      1.0000 0.18540  0.81617  0.72358  Biso   1.000  C  -0.139569
  C61      1.0000 0.17570  0.85741  0.70361  Biso   1.000  C  -0.082007
  C62      1.0000 0.13710  0.77385  0.77208  Biso   1.000  C  0.066331
  C63      1.0000 0.02990  0.76450  0.79329  Biso   1.000  C  -0.154442
  C64      1.0000 0.02790  0.71785  0.80923  Biso   1.000  C  -0.094452
  C65      1.0000 0.13180  0.67735  0.80499  Biso   1.000  C  -0.029350
  C66      1.0000 0.24600  0.68705  0.78507  Biso   1.000  C  -0.102690
  C67      1.0000 0.24990  0.73372  0.76934  Biso   1.000  C  -0.145504
  C68      1.0000 0.11820  0.62185  0.81911  Biso   1.000  C  0.630154
  C69      1.0000 0.63330  0.02118  0.57674  Biso   1.000  C  -0.100242
  C70      1.0000 0.63510  0.02350  0.54670  Biso   1.000  C  -0.143790
  C71      1.0000 0.79670  0.95620  0.48372  Biso   1.000  C  -0.189748
  C72      1.0000 0.78960  0.96000  0.45065  Biso   1.000  C  -0.096550
  C73      1.0000 0.09920  0.54897  0.18988  Biso   1.000  C  0.611978
  C74      1.0000 0.11360  0.59225  0.21144  Biso   1.000  C  -0.032141
  C75      1.0000 0.06130  0.58760  0.23964  Biso   1.000  C  -0.093901
  C76      1.0000 0.06810  0.62967  0.25972  Biso   1.000  C  -0.155690
  C77      1.0000 0.13280  0.67862  0.25143  Biso   1.000  C  0.091556
  C78      1.0000 0.18540  0.68383  0.22358  Biso   1.000  C  -0.139570
  C79      1.0000 0.17570  0.64259  0.20361  Biso   1.000  C  -0.082007
  C80      1.0000 0.13710  0.72615  0.27208  Biso   1.000  C  0.066331
  C81      1.0000 0.02990  0.73550  0.29329  Biso   1.000  C  -0.154442
  C82      1.0000 0.02790  0.78215  0.30923  Biso   1.000  C  -0.094452
  C83      1.0000 0.13180  0.82265  0.30499  Biso   1.000  C  -0.029351
  C84      1.0000 0.24600  0.81295  0.28507  Biso   1.000  C  -0.102689
  C85      1.0000 0.24990  0.76628  0.26934  Biso   1.000  C  -0.145504
  C86      1.0000 0.11820  0.87815  0.31911  Biso   1.000  C  0.630154
  C87      1.0000 0.63330  0.47882  0.07674  Biso   1.000  C  -0.100242
  C88      1.0000 0.63510  0.47650  0.04670  Biso   1.000  C  -0.143790
  C89      1.0000 0.79670  0.54380  0.98372  Biso   1.000  C  -0.189748
  C90      1.0000 0.78960  0.54000  0.95065  Biso   1.000  C  -0.096549
  C91      1.0000 0.59920  0.95103  0.31012  Biso   1.000  C  0.611978
  C92      1.0000 0.61360  0.90775  0.28856  Biso   1.000  C  -0.032141
  C93      1.0000 0.56130  0.91240  0.26036  Biso   1.000  C  -0.093901
  C94      1.0000 0.56810  0.87033  0.24028  Biso   1.000  C  -0.155690
  C95      1.0000 0.63280  0.82138  0.24857  Biso   1.000  C  0.091555
  C96      1.0000 0.68540  0.81617  0.27642  Biso   1.000  C  -0.139569
  C97      1.0000 0.67570  0.85741  0.29639  Biso   1.000  C  -0.082007
  C98      1.0000 0.63710  0.77385  0.22792  Biso   1.000  C  0.066331
  C99      1.0000 0.52990  0.76450  0.20671  Biso   1.000  C  -0.154442
  C100     1.0000 0.52790  0.71785  0.19077  Biso   1.000  C  -0.094452
  C101     1.0000 0.63180  0.67735  0.19501  Biso   1.000  C  -0.029351
  C102     1.0000 0.74600  0.68705  0.21493  Biso   1.000  C  -0.102690
  C103     1.0000 0.74990  0.73372  0.23066  Biso   1.000  C  -0.145504
  C104     1.0000 0.61820  0.62185  0.18089  Biso   1.000  C  0.630154
  C105     1.0000 0.13330  0.02118  0.42326  Biso   1.000  C  -0.100242
  C106     1.0000 0.13510  0.02350  0.45330  Biso   1.000  C  -0.143790
  C107     1.0000 0.29670  0.95620  0.51628  Biso   1.000  C  -0.189748
  C108     1.0000 0.28960  0.96000  0.54935  Biso   1.000  C  -0.096549
  C109     1.0000 0.40080  0.45103  0.18988  Biso   1.000  C  0.611978
  C110     1.0000 0.38640  0.40775  0.21144  Biso   1.000  C  -0.032141
  C111     1.0000 0.43870  0.41240  0.23964  Biso   1.000  C  -0.093901
  C112     1.0000 0.43190  0.37033  0.25972  Biso   1.000  C  -0.155690
  C113     1.0000 0.36720  0.32138  0.25143  Biso   1.000  C  0.091556
  C114     1.0000 0.31460  0.31617  0.22358  Biso   1.000  C  -0.139570
  C115     1.0000 0.32430  0.35741  0.20361  Biso   1.000  C  -0.082007
  C116     1.0000 0.36290  0.27385  0.27208  Biso   1.000  C  0.066331
  C117     1.0000 0.47010  0.26450  0.29329  Biso   1.000  C  -0.154442
  C118     1.0000 0.47210  0.21785  0.30923  Biso   1.000  C  -0.094452
  C119     1.0000 0.36820  0.17735  0.30499  Biso   1.000  C  -0.029351
  C120     1.0000 0.25400  0.18705  0.28507  Biso   1.000  C  -0.102689
  C121     1.0000 0.25010  0.23372  0.26934  Biso   1.000  C  -0.145504
  C122     1.0000 0.38180  0.12185  0.31911  Biso   1.000  C  0.630154
  C123     1.0000 0.86670  0.52118  0.07674  Biso   1.000  C  -0.100242
  C124     1.0000 0.86490  0.52350  0.04670  Biso   1.000  C  -0.143790
  C125     1.0000 0.70330  0.45620  0.98372  Biso   1.000  C  -0.189748
  C126     1.0000 0.71040  0.46000  0.95065  Biso   1.000  C  -0.096549
  C127     1.0000 0.90080  0.04897  0.31012  Biso   1.000  C  0.611978
  C128     1.0000 0.88640  0.09225  0.28856  Biso   1.000  C  -0.032141
  C129     1.0000 0.93870  0.08760  0.26036  Biso   1.000  C  -0.093901
  C130     1.0000 0.93190  0.12967  0.24028  Biso   1.000  C  -0.155690
  C131     1.0000 0.86720  0.17862  0.24857  Biso   1.000  C  0.091555
  C132     1.0000 0.81460  0.18383  0.27642  Biso   1.000  C  -0.139569
  C133     1.0000 0.82430  0.14259  0.29639  Biso   1.000  C  -0.082007
  C134     1.0000 0.86290  0.22615  0.22792  Biso   1.000  C  0.066331
  C135     1.0000 0.97010  0.23550  0.20671  Biso   1.000  C  -0.154442
  C136     1.0000 0.97210  0.28215  0.19077  Biso   1.000  C  -0.094452
  C137     1.0000 0.86820  0.32265  0.19501  Biso   1.000  C  -0.029351
  C138     1.0000 0.75400  0.31295  0.21493  Biso   1.000  C  -0.102690
  C139     1.0000 0.75010  0.26628  0.23066  Biso   1.000  C  -0.145504
  C140     1.0000 0.88180  0.37815  0.18089  Biso   1.000  C  0.630154
  C141     1.0000 0.36670  0.97882  0.42326  Biso   1.000  C  -0.100242
  C142     1.0000 0.36490  0.97650  0.45330  Biso   1.000  C  -0.143790
  C143     1.0000 0.20330  0.04380  0.51628  Biso   1.000  C  -0.189748
  C144     1.0000 0.21040  0.04000  0.54935  Biso   1.000  C  -0.096549
  C145     1.0000 0.25000  0.50000  0.87511  Biso   1.000  C  0.618717
  C146     1.0000 0.25000  0.50000  0.90806  Biso   1.000  C  -0.046224
  C147     1.0000 0.25000  0.50000  0.96857  Biso   1.000  C  0.097854
  C148     1.0000 0.25000  0.50000  0.00122  Biso   1.000  C  0.084157
  C149     1.0000 0.25000  0.50000  0.06799  Biso   1.000  C  -0.053820
  C150     1.0000 0.25000  0.50000  0.10201  Biso   1.000  C  0.609309
  C151     1.0000 0.75000  0.00000  0.62489  Biso   1.000  C  0.618717
  C152     1.0000 0.75000  0.00000  0.59194  Biso   1.000  C  -0.046224
  C153     1.0000 0.75000  0.00000  0.53143  Biso   1.000  C  0.097854
  C154     1.0000 0.75000  0.00000  0.49878  Biso   1.000  C  0.084157
  C155     1.0000 0.75000  0.00000  0.43201  Biso   1.000  C  -0.053820
  C156     1.0000 0.75000  0.00000  0.39799  Biso   1.000  C  0.609309
  C157     1.0000 0.75000  0.50000  0.12489  Biso   1.000  C  0.618717
  C158     1.0000 0.75000  0.50000  0.09194  Biso   1.000  C  -0.046225
  C159     1.0000 0.75000  0.50000  0.03143  Biso   1.000  C  0.097854
  C160     1.0000 0.75000  0.50000  0.99878  Biso   1.000  C  0.084157
  C161     1.0000 0.75000  0.50000  0.93201  Biso   1.000  C  -0.053820
  C162     1.0000 0.75000  0.50000  0.89799  Biso   1.000  C  0.609309
  C163     1.0000 0.25000  0.00000  0.37511  Biso   1.000  C  0.618717
  C164     1.0000 0.25000  0.00000  0.40806  Biso   1.000  C  -0.046225
  C165     1.0000 0.25000  0.00000  0.46857  Biso   1.000  C  0.097854
  C166     1.0000 0.25000  0.00000  0.50122  Biso   1.000  C  0.084157
  C167     1.0000 0.25000  0.00000  0.56799  Biso   1.000  C  -0.053820
  C168     1.0000 0.25000  0.00000  0.60201  Biso   1.000  C  0.609309
  Cd1      1.0000 0.91412  0.53713  0.85085  Biso   1.000  Cd  0.992966
  Cd2      1.0000 0.41412  0.96287  0.64915  Biso   1.000  Cd  0.992966
  Cd3      1.0000 0.58588  0.46287  0.85085  Biso   1.000  Cd  0.992966
  Cd4      1.0000 0.08588  0.03713  0.64915  Biso   1.000  Cd  0.992966
  Cd5      1.0000 0.08588  0.46287  0.14915  Biso   1.000  Cd  0.992966
  Cd6      1.0000 0.58588  0.03713  0.35085  Biso   1.000  Cd  0.992966
  Cd7      1.0000 0.41412  0.53713  0.14915  Biso   1.000  Cd  0.992966
  Cd8      1.0000 0.91412  0.96287  0.35085  Biso   1.000  Cd  0.992966
  Cd9      1.0000 0.25000  0.50000  0.81325  Biso   1.000  Cd  1.090237
  Cd10     1.0000 0.75000  0.00000  0.68675  Biso   1.000  Cd  1.090237
  Cd11     1.0000 0.75000  0.50000  0.18675  Biso   1.000  Cd  1.090237
  Cd12     1.0000 0.25000  0.00000  0.31325  Biso   1.000  Cd  1.090237
  H1       1.0000 0.98050  0.44540  0.75460  Biso   1.000  H  0.108997
  H2       1.0000 0.96990  0.37480  0.72160  Biso   1.000  H  0.122189
  H3       1.0000 0.77070  0.28340  0.78190  Biso   1.000  H  0.109132
  H4       1.0000 0.78950  0.35210  0.81530  Biso   1.000  H  0.120929
  H5       1.0000 0.04210  0.29090  0.70340  Biso   1.000  H  0.112194
  H6       1.0000 0.04510  0.21310  0.67670  Biso   1.000  H  0.116502
  H7       1.0000 0.67990  0.16110  0.71740  Biso   1.000  H  0.107934
  H8       1.0000 0.67220  0.23970  0.74350  Biso   1.000  H  0.105921
  H9       1.0000 0.44860  0.53420  0.91320  Biso   1.000  H  0.107196
  H10      1.0000 0.44110  0.54090  0.96330  Biso   1.000  H  0.115816
  H11      1.0000 0.16840  0.42510  0.00690  Biso   1.000  H  0.123140
  H12      1.0000 0.18130  0.42810  0.05870  Biso   1.000  H  0.078365
  H13      1.0000 0.48050  0.05460  0.74540  Biso   1.000  H  0.108997
  H14      1.0000 0.46990  0.12520  0.77840  Biso   1.000  H  0.122189
  H15      1.0000 0.27070  0.21660  0.71810  Biso   1.000  H  0.109131
  H16      1.0000 0.28950  0.14790  0.68470  Biso   1.000  H  0.120928
  H17      1.0000 0.54210  0.20910  0.79660  Biso   1.000  H  0.112193
  H18      1.0000 0.54510  0.28690  0.82330  Biso   1.000  H  0.116501
  H19      1.0000 0.17990  0.33890  0.78260  Biso   1.000  H  0.107934
  H20      1.0000 0.17220  0.26030  0.75650  Biso   1.000  H  0.105921
  H21      1.0000 0.94860  0.96580  0.58680  Biso   1.000  H  0.107196
  H22      1.0000 0.94110  0.95910  0.53670  Biso   1.000  H  0.115816
  H23      1.0000 0.66840  0.07490  0.49310  Biso   1.000  H  0.123140
  H24      1.0000 0.68130  0.07190  0.44130  Biso   1.000  H  0.078365
  H25      1.0000 0.51950  0.55460  0.75460  Biso   1.000  H  0.108995
  H26      1.0000 0.53010  0.62520  0.72160  Biso   1.000  H  0.122188
  H27      1.0000 0.72930  0.71660  0.78190  Biso   1.000  H  0.109132
  H28      1.0000 0.71050  0.64790  0.81530  Biso   1.000  H  0.120929
  H29      1.0000 0.45790  0.70910  0.70340  Biso   1.000  H  0.112194
  H30      1.0000 0.45490  0.78690  0.67670  Biso   1.000  H  0.116502
  H31      1.0000 0.82010  0.83890  0.71740  Biso   1.000  H  0.107934
  H32      1.0000 0.82780  0.76030  0.74350  Biso   1.000  H  0.105921
  H33      1.0000 0.05140  0.46580  0.91320  Biso   1.000  H  0.107195
  H34      1.0000 0.05890  0.45910  0.96330  Biso   1.000  H  0.115816
  H35      1.0000 0.33160  0.57490  0.00690  Biso   1.000  H  0.123140
  H36      1.0000 0.31870  0.57190  0.05870  Biso   1.000  H  0.078365
  H37      1.0000 0.01950  0.94540  0.74540  Biso   1.000  H  0.108995
  H38      1.0000 0.03010  0.87480  0.77840  Biso   1.000  H  0.122188
  H39      1.0000 0.22930  0.78340  0.71810  Biso   1.000  H  0.109131
  H40      1.0000 0.21050  0.85210  0.68470  Biso   1.000  H  0.120928
  H41      1.0000 0.95790  0.79090  0.79660  Biso   1.000  H  0.112193
  H42      1.0000 0.95490  0.71310  0.82330  Biso   1.000  H  0.116501
  H43      1.0000 0.32010  0.66110  0.78260  Biso   1.000  H  0.107934
  H44      1.0000 0.32780  0.73970  0.75650  Biso   1.000  H  0.105921
  H45      1.0000 0.55140  0.03420  0.58680  Biso   1.000  H  0.107195
  H46      1.0000 0.55890  0.04090  0.53670  Biso   1.000  H  0.115816
  H47      1.0000 0.83160  0.92510  0.49310  Biso   1.000  H  0.123140
  H48      1.0000 0.81870  0.92810  0.44130  Biso   1.000  H  0.078365
  H49      1.0000 0.01950  0.55460  0.24540  Biso   1.000  H  0.108997
  H50      1.0000 0.03010  0.62520  0.27840  Biso   1.000  H  0.122189
  H51      1.0000 0.22930  0.71660  0.21810  Biso   1.000  H  0.109132
  H52      1.0000 0.21050  0.64790  0.18470  Biso   1.000  H  0.120929
  H53      1.0000 0.95790  0.70910  0.29660  Biso   1.000  H  0.112194
  H54      1.0000 0.95490  0.78690  0.32330  Biso   1.000  H  0.116501
  H55      1.0000 0.32010  0.83890  0.28260  Biso   1.000  H  0.107934
  H56      1.0000 0.32780  0.76030  0.25650  Biso   1.000  H  0.105921
  H57      1.0000 0.55140  0.46580  0.08680  Biso   1.000  H  0.107195
  H58      1.0000 0.55890  0.45910  0.03670  Biso   1.000  H  0.115816
  H59      1.0000 0.83160  0.57490  0.99310  Biso   1.000  H  0.123139
  H60      1.0000 0.81870  0.57190  0.94130  Biso   1.000  H  0.078363
  H61      1.0000 0.51950  0.94540  0.25460  Biso   1.000  H  0.108997
  H62      1.0000 0.53010  0.87480  0.22160  Biso   1.000  H  0.122189
  H63      1.0000 0.72930  0.78340  0.28190  Biso   1.000  H  0.109131
  H64      1.0000 0.71050  0.85210  0.31530  Biso   1.000  H  0.120928
  H65      1.0000 0.45790  0.79090  0.20340  Biso   1.000  H  0.112193
  H66      1.0000 0.45490  0.71310  0.17670  Biso   1.000  H  0.116501
  H67      1.0000 0.82010  0.66110  0.21740  Biso   1.000  H  0.107934
  H68      1.0000 0.82780  0.73970  0.24350  Biso   1.000  H  0.105921
  H69      1.0000 0.05140  0.03420  0.41320  Biso   1.000  H  0.107195
  H70      1.0000 0.05890  0.04090  0.46330  Biso   1.000  H  0.115816
  H71      1.0000 0.33160  0.92510  0.50690  Biso   1.000  H  0.123139
  H72      1.0000 0.31870  0.92810  0.55870  Biso   1.000  H  0.078363
  H73      1.0000 0.48050  0.44540  0.24540  Biso   1.000  H  0.108995
  H74      1.0000 0.46990  0.37480  0.27840  Biso   1.000  H  0.122188
  H75      1.0000 0.27070  0.28340  0.21810  Biso   1.000  H  0.109132
  H76      1.0000 0.28950  0.35210  0.18470  Biso   1.000  H  0.120929
  H77      1.0000 0.54210  0.29090  0.29660  Biso   1.000  H  0.112194
  H78      1.0000 0.54510  0.21310  0.32330  Biso   1.000  H  0.116501
  H79      1.0000 0.17990  0.16110  0.28260  Biso   1.000  H  0.107934
  H80      1.0000 0.17220  0.23970  0.25650  Biso   1.000  H  0.105921
  H81      1.0000 0.94860  0.53420  0.08680  Biso   1.000  H  0.107195
  H82      1.0000 0.94110  0.54090  0.03670  Biso   1.000  H  0.115816
  H83      1.0000 0.66840  0.42510  0.99310  Biso   1.000  H  0.123139
  H84      1.0000 0.68130  0.42810  0.94130  Biso   1.000  H  0.078363
  H85      1.0000 0.98050  0.05460  0.25460  Biso   1.000  H  0.108995
  H86      1.0000 0.96990  0.12520  0.22160  Biso   1.000  H  0.122188
  H87      1.0000 0.77070  0.21660  0.28190  Biso   1.000  H  0.109131
  H88      1.0000 0.78950  0.14790  0.31530  Biso   1.000  H  0.120928
  H89      1.0000 0.04210  0.20910  0.20340  Biso   1.000  H  0.112193
  H90      1.0000 0.04510  0.28690  0.17670  Biso   1.000  H  0.116501
  H91      1.0000 0.67990  0.33890  0.21740  Biso   1.000  H  0.107934
  H92      1.0000 0.67220  0.26030  0.24350  Biso   1.000  H  0.105921
  H93      1.0000 0.44860  0.96580  0.41320  Biso   1.000  H  0.107195
  H94      1.0000 0.44110  0.95910  0.46330  Biso   1.000  H  0.115816
  H95      1.0000 0.16840  0.07490  0.50690  Biso   1.000  H  0.123139
  H96      1.0000 0.18130  0.07190  0.55870  Biso   1.000  H  0.078363
  O1       1.0000 0.98280  0.49269  0.80454  Biso   1.000  O  -0.606982
  O2       1.0000 0.82960  0.44856  0.83393  Biso   1.000  O  -0.579310
  O3       1.0000 0.99610  0.11371  0.66604  Biso   1.000  O  -0.571595
  O4       1.0000 0.78150  0.08948  0.68509  Biso   1.000  O  -0.570560
  O5       1.0000 0.13140  0.49131  0.86162  Biso   1.000  O  -0.596819
  O6       1.0000 0.17610  0.46000  0.10520  Biso   1.000  O  -0.436066
  O7       1.0000 0.48280  0.00731  0.69546  Biso   1.000  O  -0.606982
  O8       1.0000 0.32960  0.05144  0.66607  Biso   1.000  O  -0.579310
  O9       1.0000 0.49610  0.38629  0.83396  Biso   1.000  O  -0.571595
  O10      1.0000 0.28150  0.41052  0.81491  Biso   1.000  O  -0.570560
  O11      1.0000 0.63140  0.00869  0.63838  Biso   1.000  O  -0.596819
  O12      1.0000 0.67610  0.04000  0.39480  Biso   1.000  O  -0.436066
  O13      1.0000 0.51720  0.50731  0.80454  Biso   1.000  O  -0.606982
  O14      1.0000 0.67040  0.55144  0.83393  Biso   1.000  O  -0.579310
  O15      1.0000 0.50390  0.88629  0.66604  Biso   1.000  O  -0.571595
  O16      1.0000 0.71850  0.91052  0.68509  Biso   1.000  O  -0.570560
  O17      1.0000 0.36860  0.50869  0.86162  Biso   1.000  O  -0.596819
  O18      1.0000 0.32390  0.54000  0.10520  Biso   1.000  O  -0.436066
  O19      1.0000 0.01720  0.99269  0.69546  Biso   1.000  O  -0.606982
  O20      1.0000 0.17040  0.94856  0.66607  Biso   1.000  O  -0.579310
  O21      1.0000 0.00390  0.61371  0.83396  Biso   1.000  O  -0.571595
  O22      1.0000 0.21850  0.58948  0.81491  Biso   1.000  O  -0.570560
  O23      1.0000 0.86860  0.99131  0.63838  Biso   1.000  O  -0.596819
  O24      1.0000 0.82390  0.96000  0.39480  Biso   1.000  O  -0.436066
  O25      1.0000 0.01720  0.50731  0.19546  Biso   1.000  O  -0.606982
  O26      1.0000 0.17040  0.55144  0.16607  Biso   1.000  O  -0.579310
  O27      1.0000 0.00390  0.88629  0.33396  Biso   1.000  O  -0.571595
  O28      1.0000 0.21850  0.91052  0.31491  Biso   1.000  O  -0.570560
  O29      1.0000 0.86860  0.50869  0.13838  Biso   1.000  O  -0.596819
  O30      1.0000 0.82390  0.54000  0.89480  Biso   1.000  O  -0.436065
  O31      1.0000 0.51720  0.99269  0.30454  Biso   1.000  O  -0.606982
  O32      1.0000 0.67040  0.94856  0.33393  Biso   1.000  O  -0.579310
  O33      1.0000 0.50390  0.61371  0.16604  Biso   1.000  O  -0.571595
  O34      1.0000 0.71850  0.58948  0.18509  Biso   1.000  O  -0.570560
  O35      1.0000 0.36860  0.99131  0.36162  Biso   1.000  O  -0.596819
  O36      1.0000 0.32390  0.96000  0.60520  Biso   1.000  O  -0.436065
  O37      1.0000 0.48280  0.49269  0.19546  Biso   1.000  O  -0.606982
  O38      1.0000 0.32960  0.44856  0.16607  Biso   1.000  O  -0.579310
  O39      1.0000 0.49610  0.11371  0.33396  Biso   1.000  O  -0.571595
  O40      1.0000 0.28150  0.08948  0.31491  Biso   1.000  O  -0.570560
  O41      1.0000 0.63140  0.49131  0.13838  Biso   1.000  O  -0.596819
  O42      1.0000 0.67610  0.46000  0.89480  Biso   1.000  O  -0.436065
  O43      1.0000 0.98280  0.00731  0.30454  Biso   1.000  O  -0.606982
  O44      1.0000 0.82960  0.05144  0.33393  Biso   1.000  O  -0.579310
  O45      1.0000 0.99610  0.38629  0.16604  Biso   1.000  O  -0.571595
  O46      1.0000 0.78150  0.41052  0.18509  Biso   1.000  O  -0.570560
  O47      1.0000 0.13140  0.00869  0.36162  Biso   1.000  O  -0.596819
  O48      1.0000 0.17610  0.04000  0.60520  Biso   1.000  O  -0.436065
