data_image0
_cell_length_a       18.453
_cell_length_b       18.453
_cell_length_c       27.7826
_cell_angle_alpha    70.6039
_cell_angle_beta     70.6039
_cell_angle_gamma    60

_symmetry_space_group_name_H-M    "P 1"
_symmetry_int_tables_number       1

loop_
  _symmetry_equiv_pos_as_xyz
  'x, y, z'

loop_
  _atom_site_label
  _atom_site_occupancy
  _atom_site_fract_x
  _atom_site_fract_y
  _atom_site_fract_z
  _atom_site_thermal_displace_type
  _atom_site_B_iso_or_equiv
  _atom_site_type_symbol
  _atom_site_charge
  C1       1.0000 0.18159  0.38725  0.78868  Biso   1.000  C  0.596094
  C2       1.0000 0.08703  0.51728  0.89215  Biso   1.000  C  0.094088
  C3       1.0000 0.19414  0.64820  0.79120  Biso   1.000  C  0.598788
  C4       1.0000 0.10689  0.45631  0.86539  Biso   1.000  C  -0.149704
  C5       1.0000 0.08656  0.48538  0.98719  Biso   1.000  C  0.037863
  C6       1.0000 0.95677  0.52492  0.96007  Biso   1.000  C  0.034986
  C7       1.0000 0.11357  0.58063  0.86737  Biso   1.000  C  -0.151783
  C8       1.0000 0.15956  0.58369  0.81616  Biso   1.000  C  -0.009541
  C9       1.0000 0.04124  0.51065  0.94771  Biso   1.000  C  -0.038696
  C10      1.0000 0.17868  0.52194  0.79000  Biso   1.000  C  -0.118910
  C11      1.0000 0.90825  0.55265  0.92095  Biso   1.000  C  -0.140192
  C12      1.0000 0.15238  0.45836  0.81484  Biso   1.000  C  -0.004658
  C13      1.0000 0.17315  0.46937  0.97591  Biso   1.000  C  -0.145136
  C14      1.0000 0.82605  0.56705  0.93355  Biso   1.000  C  -0.091370
  C15      1.0000 0.21517  0.44497  0.01389  Biso   1.000  C  -0.079971
  C16      1.0000 0.38725  0.64248  0.78868  Biso   1.000  C  0.598858
  C17      1.0000 0.51728  0.50354  0.89215  Biso   1.000  C  0.094681
  C18      1.0000 0.64820  0.36646  0.79120  Biso   1.000  C  0.596766
  C19      1.0000 0.45631  0.57141  0.86539  Biso   1.000  C  -0.147311
  C20      1.0000 0.48538  0.44087  0.98719  Biso   1.000  C  0.038807
  C21      1.0000 0.52492  0.55824  0.96007  Biso   1.000  C  0.033915
  C22      1.0000 0.58063  0.43843  0.86737  Biso   1.000  C  -0.151718
  C23      1.0000 0.58369  0.44059  0.81616  Biso   1.000  C  -0.008379
  C24      1.0000 0.51065  0.50040  0.94771  Biso   1.000  C  -0.037941
  C25      1.0000 0.52194  0.50938  0.79000  Biso   1.000  C  -0.119725
  C26      1.0000 0.55265  0.61815  0.92095  Biso   1.000  C  -0.140163
  C27      1.0000 0.45836  0.57442  0.81484  Biso   1.000  C  -0.007267
  C28      1.0000 0.46937  0.38157  0.97591  Biso   1.000  C  -0.146473
  C29      1.0000 0.56705  0.67335  0.93355  Biso   1.000  C  -0.089856
  C30      1.0000 0.44497  0.32597  0.01389  Biso   1.000  C  -0.079247
  C31      1.0000 0.64248  0.18159  0.78868  Biso   1.000  C  0.596264
  C32      1.0000 0.50354  0.08703  0.89215  Biso   1.000  C  0.093170
  C33      1.0000 0.36646  0.19414  0.79120  Biso   1.000  C  0.600570
  C34      1.0000 0.57141  0.10689  0.86539  Biso   1.000  C  -0.145725
  C35      1.0000 0.44087  0.08656  0.98719  Biso   1.000  C  0.039003
  C36      1.0000 0.55824  0.95677  0.96007  Biso   1.000  C  0.036333
  C37      1.0000 0.43843  0.11357  0.86737  Biso   1.000  C  -0.151034
  C38      1.0000 0.44059  0.15956  0.81616  Biso   1.000  C  -0.010536
  C39      1.0000 0.50040  0.04124  0.94771  Biso   1.000  C  -0.040044
  C40      1.0000 0.50938  0.17868  0.79000  Biso   1.000  C  -0.117989
  C41      1.0000 0.61815  0.90825  0.92095  Biso   1.000  C  -0.141253
  C42      1.0000 0.57442  0.15238  0.81484  Biso   1.000  C  -0.006052
  C43      1.0000 0.38157  0.17315  0.97591  Biso   1.000  C  -0.144391
  C44      1.0000 0.67335  0.82605  0.93355  Biso   1.000  C  -0.089671
  C45      1.0000 0.32597  0.21517  0.01389  Biso   1.000  C  -0.081651
  C46      1.0000 0.31841  0.85752  0.71132  Biso   1.000  C  0.596258
  C47      1.0000 0.41297  0.99646  0.60785  Biso   1.000  C  0.093197
  C48      1.0000 0.30586  0.13354  0.70880  Biso   1.000  C  0.600573
  C49      1.0000 0.39311  0.92859  0.63461  Biso   1.000  C  -0.145714
  C50      1.0000 0.41344  0.05913  0.51281  Biso   1.000  C  0.039012
  C51      1.0000 0.54323  0.94176  0.53993  Biso   1.000  C  0.036346
  C52      1.0000 0.38643  0.06157  0.63263  Biso   1.000  C  -0.151059
  C53      1.0000 0.34044  0.05941  0.68384  Biso   1.000  C  -0.010551
  C54      1.0000 0.45876  0.99960  0.55229  Biso   1.000  C  -0.040171
  C55      1.0000 0.32132  0.99062  0.71000  Biso   1.000  C  -0.118001
  C56      1.0000 0.59175  0.88185  0.57905  Biso   1.000  C  -0.141297
  C57      1.0000 0.34762  0.92558  0.68516  Biso   1.000  C  -0.006052
  C58      1.0000 0.32685  0.11843  0.52409  Biso   1.000  C  -0.144412
  C59      1.0000 0.67395  0.82665  0.56645  Biso   1.000  C  -0.089699
  C60      1.0000 0.28483  0.17403  0.48611  Biso   1.000  C  -0.081687
  C61      1.0000 0.11275  0.31841  0.71132  Biso   1.000  C  0.596091
  C62      1.0000 0.98272  0.41297  0.60785  Biso   1.000  C  0.094057
  C63      1.0000 0.85180  0.30586  0.70880  Biso   1.000  C  0.598792
  C64      1.0000 0.04369  0.39311  0.63461  Biso   1.000  C  -0.149688
  C65      1.0000 0.01462  0.41344  0.51281  Biso   1.000  C  0.037843
  C66      1.0000 0.97508  0.54323  0.53993  Biso   1.000  C  0.034980
  C67      1.0000 0.91937  0.38643  0.63263  Biso   1.000  C  -0.151788
  C68      1.0000 0.91631  0.34044  0.68384  Biso   1.000  C  -0.009536
  C69      1.0000 0.98935  0.45876  0.55229  Biso   1.000  C  -0.038577
  C70      1.0000 0.97806  0.32132  0.71000  Biso   1.000  C  -0.118895
  C71      1.0000 0.94735  0.59175  0.57905  Biso   1.000  C  -0.140163
  C72      1.0000 0.04164  0.34762  0.68516  Biso   1.000  C  -0.004643
  C73      1.0000 0.03063  0.32685  0.52409  Biso   1.000  C  -0.145090
  C74      1.0000 0.93295  0.67395  0.56645  Biso   1.000  C  -0.091317
  C75      1.0000 0.05503  0.28483  0.48611  Biso   1.000  C  -0.079964
  C76      1.0000 0.85752  0.11275  0.71132  Biso   1.000  C  0.598866
  C77      1.0000 0.99646  0.98272  0.60785  Biso   1.000  C  0.094684
  C78      1.0000 0.13354  0.85180  0.70880  Biso   1.000  C  0.596759
  C79      1.0000 0.92859  0.04369  0.63461  Biso   1.000  C  -0.147340
  C80      1.0000 0.05913  0.01462  0.51281  Biso   1.000  C  0.038818
  C81      1.0000 0.94176  0.97508  0.53993  Biso   1.000  C  0.033908
  C82      1.0000 0.06157  0.91937  0.63263  Biso   1.000  C  -0.151688
  C83      1.0000 0.05941  0.91631  0.68384  Biso   1.000  C  -0.008370
  C84      1.0000 0.99960  0.98935  0.55229  Biso   1.000  C  -0.037935
  C85      1.0000 0.99062  0.97806  0.71000  Biso   1.000  C  -0.119730
  C86      1.0000 0.88185  0.94735  0.57905  Biso   1.000  C  -0.140148
  C87      1.0000 0.92558  0.04164  0.68516  Biso   1.000  C  -0.007280
  C88      1.0000 0.11843  0.03063  0.52409  Biso   1.000  C  -0.146495
  C89      1.0000 0.82665  0.93295  0.56645  Biso   1.000  C  -0.089882
  C90      1.0000 0.17403  0.05503  0.48611  Biso   1.000  C  -0.079214
  C91      1.0000 0.81841  0.61275  0.21132  Biso   1.000  C  0.596061
  C92      1.0000 0.91297  0.48272  0.10785  Biso   1.000  C  0.093885
  C93      1.0000 0.80586  0.35180  0.20880  Biso   1.000  C  0.602130
  C94      1.0000 0.89311  0.54369  0.13461  Biso   1.000  C  -0.149678
  C95      1.0000 0.91344  0.51462  0.01281  Biso   1.000  C  0.037816
  C96      1.0000 0.04323  0.47508  0.03993  Biso   1.000  C  0.034961
  C97      1.0000 0.88643  0.41937  0.13263  Biso   1.000  C  -0.151037
  C98      1.0000 0.84044  0.41631  0.18384  Biso   1.000  C  -0.013521
  C99      1.0000 0.95876  0.48935  0.05229  Biso   1.000  C  -0.038702
  C100     1.0000 0.82132  0.47806  0.21000  Biso   1.000  C  -0.118160
  C101     1.0000 0.09175  0.44735  0.07905  Biso   1.000  C  -0.140208
  C102     1.0000 0.84762  0.54164  0.18516  Biso   1.000  C  -0.004897
  C103     1.0000 0.82685  0.53063  0.02409  Biso   1.000  C  -0.145228
  C104     1.0000 0.17395  0.43295  0.06645  Biso   1.000  C  -0.091401
  C105     1.0000 0.78483  0.55503  0.98611  Biso   1.000  C  -0.080086
  C106     1.0000 0.61275  0.35752  0.21132  Biso   1.000  C  0.602304
  C107     1.0000 0.48272  0.49646  0.10785  Biso   1.000  C  0.094499
  C108     1.0000 0.35180  0.63354  0.20880  Biso   1.000  C  0.596729
  C109     1.0000 0.54369  0.42859  0.13461  Biso   1.000  C  -0.146546
  C110     1.0000 0.51462  0.55913  0.01281  Biso   1.000  C  0.038781
  C111     1.0000 0.47508  0.44176  0.03993  Biso   1.000  C  0.033856
  C112     1.0000 0.41937  0.56157  0.13263  Biso   1.000  C  -0.151601
  C113     1.0000 0.41631  0.55941  0.18384  Biso   1.000  C  -0.008589
  C114     1.0000 0.48935  0.49960  0.05229  Biso   1.000  C  -0.037979
  C115     1.0000 0.47806  0.49062  0.21000  Biso   1.000  C  -0.118989
  C116     1.0000 0.44735  0.38185  0.07905  Biso   1.000  C  -0.140258
  C117     1.0000 0.54164  0.42558  0.18516  Biso   1.000  C  -0.011135
  C118     1.0000 0.53063  0.61843  0.02409  Biso   1.000  C  -0.146525
  C119     1.0000 0.43295  0.32665  0.06645  Biso   1.000  C  -0.089953
  C120     1.0000 0.55503  0.67403  0.98611  Biso   1.000  C  -0.079243
  C121     1.0000 0.35752  0.81841  0.21132  Biso   1.000  C  0.596267
  C122     1.0000 0.49646  0.91297  0.10785  Biso   1.000  C  0.093177
  C123     1.0000 0.63354  0.80586  0.20880  Biso   1.000  C  0.600573
  C124     1.0000 0.42859  0.89311  0.13461  Biso   1.000  C  -0.145730
  C125     1.0000 0.55913  0.91344  0.01281  Biso   1.000  C  0.039011
  C126     1.0000 0.44176  0.04323  0.03993  Biso   1.000  C  0.036324
  C127     1.0000 0.56157  0.88643  0.13263  Biso   1.000  C  -0.151058
  C128     1.0000 0.55941  0.84044  0.18384  Biso   1.000  C  -0.010556
  C129     1.0000 0.49960  0.95876  0.05229  Biso   1.000  C  -0.040059
  C130     1.0000 0.49062  0.82132  0.21000  Biso   1.000  C  -0.118028
  C131     1.0000 0.38185  0.09175  0.07905  Biso   1.000  C  -0.141290
  C132     1.0000 0.42558  0.84762  0.18516  Biso   1.000  C  -0.006065
  C133     1.0000 0.61843  0.82685  0.02409  Biso   1.000  C  -0.144410
  C134     1.0000 0.32665  0.17395  0.06645  Biso   1.000  C  -0.089723
  C135     1.0000 0.67403  0.78483  0.98611  Biso   1.000  C  -0.081621
  C136     1.0000 0.68159  0.14248  0.28868  Biso   1.000  C  0.599725
  C137     1.0000 0.58703  0.00354  0.39215  Biso   1.000  C  0.093003
  C138     1.0000 0.69414  0.86646  0.29120  Biso   1.000  C  0.600538
  C139     1.0000 0.60689  0.07141  0.36539  Biso   1.000  C  -0.144984
  C140     1.0000 0.58656  0.94087  0.48719  Biso   1.000  C  0.038986
  C141     1.0000 0.45677  0.05824  0.46007  Biso   1.000  C  0.036288
  C142     1.0000 0.61357  0.93843  0.36737  Biso   1.000  C  -0.150946
  C143     1.0000 0.65956  0.94059  0.31616  Biso   1.000  C  -0.010759
  C144     1.0000 0.54124  0.00040  0.44771  Biso   1.000  C  -0.040203
  C145     1.0000 0.67868  0.00938  0.29000  Biso   1.000  C  -0.117305
  C146     1.0000 0.40825  0.11815  0.42095  Biso   1.000  C  -0.141393
  C147     1.0000 0.65238  0.07442  0.31484  Biso   1.000  C  -0.009789
  C148     1.0000 0.67315  0.88157  0.47591  Biso   1.000  C  -0.144465
  C149     1.0000 0.32605  0.17335  0.43355  Biso   1.000  C  -0.089793
  C150     1.0000 0.71517  0.82597  0.51389  Biso   1.000  C  -0.081683
  C151     1.0000 0.88725  0.68159  0.28868  Biso   1.000  C  0.596094
  C152     1.0000 0.01728  0.58703  0.39215  Biso   1.000  C  0.094064
  C153     1.0000 0.14820  0.69414  0.29120  Biso   1.000  C  0.598795
  C154     1.0000 0.95631  0.60689  0.36539  Biso   1.000  C  -0.149693
  C155     1.0000 0.98538  0.58656  0.48719  Biso   1.000  C  0.037851
  C156     1.0000 0.02492  0.45677  0.46007  Biso   1.000  C  0.034972
  C157     1.0000 0.08063  0.61357  0.36737  Biso   1.000  C  -0.151813
  C158     1.0000 0.08369  0.65956  0.31616  Biso   1.000  C  -0.009554
  C159     1.0000 0.01065  0.54124  0.44771  Biso   1.000  C  -0.038591
  C160     1.0000 0.02194  0.67868  0.29000  Biso   1.000  C  -0.118934
  C161     1.0000 0.05265  0.40825  0.42095  Biso   1.000  C  -0.140201
  C162     1.0000 0.95836  0.65238  0.31484  Biso   1.000  C  -0.004656
  C163     1.0000 0.96937  0.67315  0.47591  Biso   1.000  C  -0.145109
  C164     1.0000 0.06705  0.32605  0.43355  Biso   1.000  C  -0.091370
  C165     1.0000 0.94497  0.71517  0.51389  Biso   1.000  C  -0.079933
  C166     1.0000 0.14248  0.88725  0.28868  Biso   1.000  C  0.598829
  C167     1.0000 0.00354  0.01728  0.39215  Biso   1.000  C  0.094486
  C168     1.0000 0.86646  0.14820  0.29120  Biso   1.000  C  0.600125
  C169     1.0000 0.07141  0.95631  0.36539  Biso   1.000  C  -0.147311
  C170     1.0000 0.94087  0.98538  0.48719  Biso   1.000  C  0.038770
  C171     1.0000 0.05824  0.02492  0.46007  Biso   1.000  C  0.033882
  C172     1.0000 0.93843  0.08063  0.36737  Biso   1.000  C  -0.150927
  C173     1.0000 0.94059  0.08369  0.31616  Biso   1.000  C  -0.012453
  C174     1.0000 0.00040  0.01065  0.44771  Biso   1.000  C  -0.037943
  C175     1.0000 0.00938  0.02194  0.29000  Biso   1.000  C  -0.118957
  C176     1.0000 0.11815  0.05265  0.42095  Biso   1.000  C  -0.140164
  C177     1.0000 0.07442  0.95836  0.31484  Biso   1.000  C  -0.007510
  C178     1.0000 0.88157  0.96937  0.47591  Biso   1.000  C  -0.146587
  C179     1.0000 0.17335  0.06705  0.43355  Biso   1.000  C  -0.089915
  C180     1.0000 0.82597  0.94497  0.51389  Biso   1.000  C  -0.079330
  Cu1      1.0000 0.22113  0.78383  0.79225  Biso   1.000  Cu  0.837443
  Cu2      1.0000 0.78383  0.20279  0.79225  Biso   1.000  Cu  0.837707
  Cu3      1.0000 0.20279  0.22113  0.79225  Biso   1.000  Cu  0.839075
  Cu4      1.0000 0.27887  0.29721  0.70775  Biso   1.000  Cu  0.839071
  Cu5      1.0000 0.71617  0.27887  0.70775  Biso   1.000  Cu  0.837432
  Cu6      1.0000 0.29721  0.71617  0.70775  Biso   1.000  Cu  0.837712
  Cu7      1.0000 0.77887  0.21617  0.20775  Biso   1.000  Cu  0.863921
  Cu8      1.0000 0.21617  0.79721  0.20775  Biso   1.000  Cu  0.837571
  Cu9      1.0000 0.79721  0.77887  0.20775  Biso   1.000  Cu  0.838931
  Cu10     1.0000 0.72113  0.70279  0.29225  Biso   1.000  Cu  0.838937
  Cu11     1.0000 0.28383  0.72113  0.29225  Biso   1.000  Cu  0.837285
  Cu12     1.0000 0.70279  0.28383  0.29225  Biso   1.000  Cu  0.864171
  H1       1.0000 0.08890  0.41230  0.88210  Biso   1.000  H  0.130850
  H2       1.0000 0.10040  0.62270  0.88540  Biso   1.000  H  0.130928
  H3       1.0000 0.20990  0.52360  0.75490  Biso   1.000  H  0.133969
  H4       1.0000 0.93510  0.56110  0.88510  Biso   1.000  H  0.107582
  H5       1.0000 0.20230  0.47600  0.94060  Biso   1.000  H  0.111240
  H6       1.0000 0.79570  0.58540  0.90670  Biso   1.000  H  0.105085
  H7       1.0000 0.27300  0.43580  0.00540  Biso   1.000  H  0.100805
  H8       1.0000 0.41230  0.61670  0.88210  Biso   1.000  H  0.129876
  H9       1.0000 0.62270  0.39150  0.88540  Biso   1.000  H  0.130366
  H10      1.0000 0.52360  0.51160  0.75490  Biso   1.000  H  0.135239
  H11      1.0000 0.56110  0.61870  0.88510  Biso   1.000  H  0.107644
  H12      1.0000 0.47600  0.38110  0.94060  Biso   1.000  H  0.111796
  H13      1.0000 0.58540  0.71220  0.90670  Biso   1.000  H  0.103486
  H14      1.0000 0.43580  0.28580  0.00540  Biso   1.000  H  0.099860
  H15      1.0000 0.61670  0.08890  0.88210  Biso   1.000  H  0.129013
  H16      1.0000 0.39150  0.10040  0.88540  Biso   1.000  H  0.130489
  H17      1.0000 0.51160  0.20990  0.75490  Biso   1.000  H  0.133617
  H18      1.0000 0.61870  0.93510  0.88510  Biso   1.000  H  0.107676
  H19      1.0000 0.38110  0.20230  0.94060  Biso   1.000  H  0.111075
  H20      1.0000 0.71220  0.79570  0.90670  Biso   1.000  H  0.104499
  H21      1.0000 0.28580  0.27300  0.00540  Biso   1.000  H  0.100572
  H22      1.0000 0.41110  0.88330  0.61790  Biso   1.000  H  0.129022
  H23      1.0000 0.39960  0.10850  0.61460  Biso   1.000  H  0.130470
  H24      1.0000 0.29010  0.98840  0.74510  Biso   1.000  H  0.133618
  H25      1.0000 0.56490  0.88130  0.61490  Biso   1.000  H  0.107668
  H26      1.0000 0.29770  0.11890  0.55940  Biso   1.000  H  0.111068
  H27      1.0000 0.70430  0.78780  0.59330  Biso   1.000  H  0.104488
  H28      1.0000 0.22700  0.21420  0.49460  Biso   1.000  H  0.100557
  H29      1.0000 0.08770  0.41110  0.61790  Biso   1.000  H  0.130864
  H30      1.0000 0.87730  0.39960  0.61460  Biso   1.000  H  0.130924
  H31      1.0000 0.97640  0.29010  0.74510  Biso   1.000  H  0.133972
  H32      1.0000 0.93890  0.56490  0.61490  Biso   1.000  H  0.107590
  H33      1.0000 0.02400  0.29770  0.55940  Biso   1.000  H  0.111254
  H34      1.0000 0.91460  0.70430  0.59330  Biso   1.000  H  0.105102
  H35      1.0000 0.06420  0.22700  0.49460  Biso   1.000  H  0.100815
  H36      1.0000 0.88330  0.08770  0.61790  Biso   1.000  H  0.129853
  H37      1.0000 0.10850  0.87730  0.61460  Biso   1.000  H  0.130393
  H38      1.0000 0.98840  0.97640  0.74510  Biso   1.000  H  0.135238
  H39      1.0000 0.88130  0.93890  0.61490  Biso   1.000  H  0.107647
  H40      1.0000 0.11890  0.02400  0.55940  Biso   1.000  H  0.111784
  H41      1.0000 0.78780  0.91460  0.59330  Biso   1.000  H  0.103490
  H42      1.0000 0.21420  0.06420  0.49460  Biso   1.000  H  0.099862
  H43      1.0000 0.91110  0.58770  0.11790  Biso   1.000  H  0.130836
  H44      1.0000 0.89960  0.37730  0.11460  Biso   1.000  H  0.130603
  H45      1.0000 0.79010  0.47640  0.24510  Biso   1.000  H  0.133664
  H46      1.0000 0.06490  0.43890  0.11490  Biso   1.000  H  0.107565
  H47      1.0000 0.79770  0.52400  0.05940  Biso   1.000  H  0.111183
  H48      1.0000 0.20430  0.41460  0.09330  Biso   1.000  H  0.105070
  H49      1.0000 0.72700  0.56420  0.99460  Biso   1.000  H  0.100781
  H50      1.0000 0.58770  0.38330  0.11790  Biso   1.000  H  0.129568
  H51      1.0000 0.37730  0.60850  0.11460  Biso   1.000  H  0.130381
  H52      1.0000 0.47640  0.48840  0.24510  Biso   1.000  H  0.134941
  H53      1.0000 0.43890  0.38130  0.11490  Biso   1.000  H  0.107585
  H54      1.0000 0.52400  0.61890  0.05940  Biso   1.000  H  0.111772
  H55      1.0000 0.41460  0.28780  0.09330  Biso   1.000  H  0.103464
  H56      1.0000 0.56420  0.71420  0.99460  Biso   1.000  H  0.099856
  H57      1.0000 0.38330  0.91110  0.11790  Biso   1.000  H  0.129009
  H58      1.0000 0.60850  0.89960  0.11460  Biso   1.000  H  0.130477
  H59      1.0000 0.48840  0.79010  0.24510  Biso   1.000  H  0.133596
  H60      1.0000 0.38130  0.06490  0.11490  Biso   1.000  H  0.107663
  H61      1.0000 0.61890  0.79770  0.05940  Biso   1.000  H  0.111067
  H62      1.0000 0.28780  0.20430  0.09330  Biso   1.000  H  0.104478
  H63      1.0000 0.71420  0.72700  0.99460  Biso   1.000  H  0.100581
  H64      1.0000 0.58890  0.11670  0.38210  Biso   1.000  H  0.128709
  H65      1.0000 0.60040  0.89150  0.38540  Biso   1.000  H  0.130488
  H66      1.0000 0.70990  0.01160  0.25490  Biso   1.000  H  0.133313
  H67      1.0000 0.43510  0.11870  0.38510  Biso   1.000  H  0.107610
  H68      1.0000 0.70230  0.88110  0.44060  Biso   1.000  H  0.111043
  H69      1.0000 0.29570  0.21220  0.40670  Biso   1.000  H  0.104466
  H70      1.0000 0.77300  0.78580  0.50540  Biso   1.000  H  0.100553
  H71      1.0000 0.91230  0.58890  0.38210  Biso   1.000  H  0.130859
  H72      1.0000 0.12270  0.60040  0.38540  Biso   1.000  H  0.130912
  H73      1.0000 0.02360  0.70990  0.25490  Biso   1.000  H  0.133950
  H74      1.0000 0.06110  0.43510  0.38510  Biso   1.000  H  0.107578
  H75      1.0000 0.97600  0.70230  0.44060  Biso   1.000  H  0.111246
  H76      1.0000 0.08540  0.29570  0.40670  Biso   1.000  H  0.105082
  H77      1.0000 0.93580  0.77300  0.50540  Biso   1.000  H  0.100824
  H78      1.0000 0.11670  0.91230  0.38210  Biso   1.000  H  0.129838
  H79      1.0000 0.89150  0.12270  0.38540  Biso   1.000  H  0.130079
  H80      1.0000 0.01160  0.02360  0.25490  Biso   1.000  H  0.134941
  H81      1.0000 0.11870  0.06110  0.38510  Biso   1.000  H  0.107627
  H82      1.0000 0.88110  0.97600  0.44060  Biso   1.000  H  0.111728
  H83      1.0000 0.21220  0.08540  0.40670  Biso   1.000  H  0.103476
  H84      1.0000 0.78580  0.93580  0.50540  Biso   1.000  H  0.099837
  O1       1.0000 0.17767  0.69856  0.81841  Biso   1.000  O  -0.518559
  O2       1.0000 0.22816  0.38978  0.74419  Biso   1.000  O  -0.514759
  O3       1.0000 0.23774  0.64417  0.74590  Biso   1.000  O  -0.522741
  O4       1.0000 0.15861  0.32876  0.81418  Biso   1.000  O  -0.534905
  O5       1.0000 0.69856  0.30536  0.81841  Biso   1.000  O  -0.519461
  O6       1.0000 0.38978  0.63787  0.74419  Biso   1.000  O  -0.515149
  O7       1.0000 0.64417  0.37219  0.74590  Biso   1.000  O  -0.520939
  O8       1.0000 0.32876  0.69845  0.81418  Biso   1.000  O  -0.535468
  O9       1.0000 0.30536  0.17767  0.81841  Biso   1.000  O  -0.520401
  O10      1.0000 0.63787  0.22816  0.74419  Biso   1.000  O  -0.514610
  O11      1.0000 0.37219  0.23774  0.74590  Biso   1.000  O  -0.523576
  O12      1.0000 0.69845  0.15861  0.81418  Biso   1.000  O  -0.534236
  O13      1.0000 0.32233  0.19464  0.68159  Biso   1.000  O  -0.520420
  O14      1.0000 0.27184  0.86213  0.75581  Biso   1.000  O  -0.514611
  O15      1.0000 0.26226  0.12781  0.75410  Biso   1.000  O  -0.523570
  O16      1.0000 0.34139  0.80155  0.68582  Biso   1.000  O  -0.534233
  O17      1.0000 0.80144  0.32233  0.68159  Biso   1.000  O  -0.518564
  O18      1.0000 0.11022  0.27184  0.75581  Biso   1.000  O  -0.514765
  O19      1.0000 0.85583  0.26226  0.75410  Biso   1.000  O  -0.522740
  O20      1.0000 0.17124  0.34139  0.68582  Biso   1.000  O  -0.534890
  O21      1.0000 0.19464  0.80144  0.68159  Biso   1.000  O  -0.519436
  O22      1.0000 0.86213  0.11022  0.75581  Biso   1.000  O  -0.515142
  O23      1.0000 0.12781  0.85583  0.75410  Biso   1.000  O  -0.520947
  O24      1.0000 0.80155  0.17124  0.68582  Biso   1.000  O  -0.535486
  O25      1.0000 0.82233  0.30144  0.18159  Biso   1.000  O  -0.524278
  O26      1.0000 0.77184  0.61022  0.25581  Biso   1.000  O  -0.514992
  O27      1.0000 0.76226  0.35583  0.25410  Biso   1.000  O  -0.528453
  O28      1.0000 0.84139  0.67124  0.18582  Biso   1.000  O  -0.534813
  O29      1.0000 0.30144  0.69464  0.18159  Biso   1.000  O  -0.519376
  O30      1.0000 0.61022  0.36213  0.25581  Biso   1.000  O  -0.520686
  O31      1.0000 0.35583  0.62781  0.25410  Biso   1.000  O  -0.521176
  O32      1.0000 0.67124  0.30155  0.18582  Biso   1.000  O  -0.540786
  O33      1.0000 0.69464  0.82233  0.18159  Biso   1.000  O  -0.520436
  O34      1.0000 0.36213  0.77184  0.25581  Biso   1.000  O  -0.514659
  O35      1.0000 0.62781  0.76226  0.25410  Biso   1.000  O  -0.523623
  O36      1.0000 0.30155  0.84139  0.18582  Biso   1.000  O  -0.534261
  O37      1.0000 0.67767  0.80536  0.31841  Biso   1.000  O  -0.520337
  O38      1.0000 0.72816  0.13787  0.24419  Biso   1.000  O  -0.520185
  O39      1.0000 0.73774  0.87219  0.24590  Biso   1.000  O  -0.523805
  O40      1.0000 0.65861  0.19845  0.31418  Biso   1.000  O  -0.539584
  O41      1.0000 0.19856  0.67767  0.31841  Biso   1.000  O  -0.518600
  O42      1.0000 0.88978  0.72816  0.24419  Biso   1.000  O  -0.514815
  O43      1.0000 0.14417  0.73774  0.24590  Biso   1.000  O  -0.522788
  O44      1.0000 0.82876  0.65861  0.31418  Biso   1.000  O  -0.534915
  O45      1.0000 0.80536  0.19856  0.31841  Biso   1.000  O  -0.525138
  O46      1.0000 0.13787  0.88978  0.24419  Biso   1.000  O  -0.515377
  O47      1.0000 0.87219  0.14417  0.24590  Biso   1.000  O  -0.526652
  O48      1.0000 0.19845  0.82876  0.31418  Biso   1.000  O  -0.535395
