
##########################################################################
#               Crystallographic Information Format file
#               Produced by PyCifRW module
#
#  This is a CIF file.  CIF has been adopted by the International
#  Union of Crystallography as the standard for data archiving and
#  transmission.
#
#  For information on this file format, follow the CIF links at
#  http://www.iucr.org
##########################################################################

data_image0

_cell_length_a                          15.228
_cell_length_b                          15.228
_cell_length_c                          28.791
_cell_angle_alpha                       90
_cell_angle_beta                        90
_cell_angle_gamma                       90
_symmetry_space_group_name_H-M          'P 1'
_symmetry_int_tables_number             1
loop_
  _symmetry_equiv_pos_as_xyz
         'x, y, z' 
loop_
  _atom_site_label
  _atom_site_occupancy
  _atom_site_fract_x
  _atom_site_fract_y
  _atom_site_fract_z
  _atom_site_thermal_displace_type
  _atom_site_B_iso_or_equiv
  _atom_site_type_symbol
  _atom_site_charge
         C1        1.0000    0.26655   0.95224   0.64747   Biso      1.000     C          -0.028369           
         C2        1.0000    0.40402   0.97587   0.71115   Biso      1.000     C          -0.188683           
         C3        1.0000    0.41560   0.92920   0.67029   Biso      1.000     C          -0.088881           
         C4        1.0000    0.34850   0.91830   0.63879   Biso      1.000     C          -0.107125           
         C5        1.0000    0.25270   0.99520   0.68932   Biso      1.000     C          -0.095717           
         C6        1.0000    0.32150   0.00730   0.71993   Biso      1.000     C          -0.084537           
         C7        1.0000    0.00730   0.67850   0.71993   Biso      1.000     C          -0.084544           
         C8        1.0000    0.55131   0.69637   0.88818   Biso      1.000     C          0.666024  
         C9        1.0000    0.52413   0.90402   0.78885   Biso      1.000     C          -0.188679           
         C10       1.0000    0.57080   0.91560   0.82971   Biso      1.000     C          -0.088879           
         C11       1.0000    0.58170   0.84850   0.86121   Biso      1.000     C          -0.107125           
         C12       1.0000    0.54776   0.76655   0.85253   Biso      1.000     C          -0.028369           
         C13       1.0000    0.50480   0.75270   0.81068   Biso      1.000     C          -0.095719           
         C14       1.0000    0.49270   0.82150   0.78007   Biso      1.000     C          -0.084535           
         C15       1.0000    0.99520   0.74730   0.68932   Biso      1.000     C          -0.095716           
         C16       1.0000    0.95224   0.73345   0.64747   Biso      1.000     C          -0.028368           
         C17       1.0000    0.05131   0.19637   0.38818   Biso      1.000     C          0.666025  
         C18       1.0000    0.02413   0.40402   0.28885   Biso      1.000     C          -0.188679           
         C19       1.0000    0.50730   0.17850   0.78007   Biso      1.000     C          -0.084542           
         C20       1.0000    0.49520   0.24730   0.81068   Biso      1.000     C          -0.095718           
         C21       1.0000    0.45224   0.23345   0.85253   Biso      1.000     C          -0.028373           
         C22       1.0000    0.41830   0.15150   0.86121   Biso      1.000     C          -0.107119           
         C23       1.0000    0.42920   0.08440   0.82971   Biso      1.000     C          -0.08888  
         C24       1.0000    0.47587   0.09598   0.78885   Biso      1.000     C          -0.188674           
         C25       1.0000    0.19637   0.94869   0.61182   Biso      1.000     C          0.666025  
         C26       1.0000    0.44869   0.30363   0.88818   Biso      1.000     C          0.666025  
         C27       1.0000    0.91830   0.65150   0.63879   Biso      1.000     C          -0.107125           
         C28       1.0000    0.99270   0.32150   0.28007   Biso      1.000     C          -0.084536           
         C29       1.0000    0.00480   0.25270   0.31068   Biso      1.000     C          -0.095719           
         C30       1.0000    0.05131   0.19637   0.61182   Biso      1.000     C          0.666025  
         C31       1.0000    0.08170   0.34850   0.36121   Biso      1.000     C          -0.107124           
         C32       1.0000    0.07080   0.41560   0.32971   Biso      1.000     C          -0.088879           
         C33       1.0000    0.92920   0.58440   0.67029   Biso      1.000     C          -0.088882           
         C34       1.0000    0.97587   0.59598   0.71115   Biso      1.000     C          -0.188678           
         C35       1.0000    0.55131   0.69637   0.11182   Biso      1.000     C          0.666023  
         C36       1.0000    0.82150   0.50730   0.21993   Biso      1.000     C          -0.084543           
         C37       1.0000    0.02413   0.40402   0.71115   Biso      1.000     C          -0.188683           
         C38       1.0000    0.07080   0.41560   0.67029   Biso      1.000     C          -0.08888  
         C39       1.0000    0.08170   0.34850   0.63879   Biso      1.000     C          -0.10713  
         C40       1.0000    0.04776   0.26655   0.64747   Biso      1.000     C          -0.028364           
         C41       1.0000    0.00480   0.25270   0.68932   Biso      1.000     C          -0.095717           
         C42       1.0000    0.99270   0.32150   0.71993   Biso      1.000     C          -0.084537           
         C43       1.0000    0.49270   0.82150   0.21993   Biso      1.000     C          -0.084543           
         C44       1.0000    0.50480   0.75270   0.18932   Biso      1.000     C          -0.095718           
         C45       1.0000    0.30363   0.55131   0.11182   Biso      1.000     C          0.666023  
         C46       1.0000    0.09598   0.52413   0.21115   Biso      1.000     C          -0.188683           
         C47       1.0000    0.08440   0.57080   0.17029   Biso      1.000     C          -0.088879           
         C48       1.0000    0.15150   0.58170   0.13879   Biso      1.000     C          -0.107123           
         C49       1.0000    0.23345   0.54776   0.14747   Biso      1.000     C          -0.028366           
         C50       1.0000    0.24730   0.50480   0.18932   Biso      1.000     C          -0.09572  
         C51       1.0000    0.17850   0.49270   0.21993   Biso      1.000     C          -0.084537           
         C52       1.0000    0.54776   0.76655   0.14747   Biso      1.000     C          -0.02837  
         C53       1.0000    0.58170   0.84850   0.13879   Biso      1.000     C          -0.107118           
         C54       1.0000    0.75270   0.49520   0.18932   Biso      1.000     C          -0.095718           
         C55       1.0000    0.76655   0.45224   0.14747   Biso      1.000     C          -0.02837  
         C56       1.0000    0.84850   0.41830   0.13879   Biso      1.000     C          -0.107118           
         C57       1.0000    0.91560   0.42920   0.17029   Biso      1.000     C          -0.08888  
         C58       1.0000    0.90402   0.47587   0.21115   Biso      1.000     C          -0.188677           
         C59       1.0000    0.69637   0.44869   0.11182   Biso      1.000     C          0.666023  
         C60       1.0000    0.52413   0.90402   0.21115   Biso      1.000     C          -0.188677           
         C61       1.0000    0.57080   0.91560   0.17029   Biso      1.000     C          -0.08888  
         C62       1.0000    0.74730   0.00480   0.68932   Biso      1.000     C          -0.095718           
         C63       1.0000    0.73345   0.04776   0.64747   Biso      1.000     C          -0.028368           
         C64       1.0000    0.65150   0.08170   0.63879   Biso      1.000     C          -0.107125           
         C65       1.0000    0.58440   0.07080   0.67029   Biso      1.000     C          -0.088881           
         C66       1.0000    0.59598   0.02413   0.71115   Biso      1.000     C          -0.188683           
         C67       1.0000    0.80363   0.05131   0.61182   Biso      1.000     C          0.666025  
         C68       1.0000    0.67850   0.99270   0.71993   Biso      1.000     C          -0.084537           
         C69       1.0000    0.94869   0.80363   0.61182   Biso      1.000     C          0.666025  
         C70       1.0000    0.04776   0.26655   0.35253   Biso      1.000     C          -0.028368           
         C71       1.0000    0.97587   0.59598   0.28885   Biso      1.000     C          -0.188679           
         C72       1.0000    0.84850   0.41830   0.86121   Biso      1.000     C          -0.107125           
         C73       1.0000    0.76655   0.45224   0.85253   Biso      1.000     C          -0.028369           
         C74       1.0000    0.41830   0.15150   0.13879   Biso      1.000     C          -0.107123           
         C75       1.0000    0.75270   0.49520   0.81068   Biso      1.000     C          -0.095719           
         C76       1.0000    0.24730   0.50480   0.81068   Biso      1.000     C          -0.09572  
         C77       1.0000    0.82150   0.50730   0.78007   Biso      1.000     C          -0.08454  
         C78       1.0000    0.50730   0.17850   0.21993   Biso      1.000     C          -0.084543           
         C79       1.0000    0.49520   0.24730   0.18932   Biso      1.000     C          -0.095719           
         C80       1.0000    0.23345   0.54776   0.85253   Biso      1.000     C          -0.028372           
         C81       1.0000    0.19637   0.94869   0.38818   Biso      1.000     C          0.666025  
         C82       1.0000    0.42920   0.08440   0.17029   Biso      1.000     C          -0.088879           
         C83       1.0000    0.15150   0.58170   0.86121   Biso      1.000     C          -0.107119           
         C84       1.0000    0.67850   0.99270   0.28007   Biso      1.000     C          -0.084541           
         C85       1.0000    0.41560   0.92920   0.32971   Biso      1.000     C          -0.088879           
         C86       1.0000    0.08440   0.57080   0.82971   Biso      1.000     C          -0.08888  
         C87       1.0000    0.34850   0.91830   0.36121   Biso      1.000     C          -0.107124           
         C88       1.0000    0.26655   0.95224   0.35253   Biso      1.000     C          -0.02837  
         C89       1.0000    0.94869   0.80363   0.38818   Biso      1.000     C          0.666025  
         C90       1.0000    0.25270   0.99520   0.31068   Biso      1.000     C          -0.095718           
         C91       1.0000    0.09598   0.52413   0.78885   Biso      1.000     C          -0.188679           
         C92       1.0000    0.30363   0.55131   0.88818   Biso      1.000     C          0.666025  
         C93       1.0000    0.32150   0.00730   0.28007   Biso      1.000     C          -0.08454  
         C94       1.0000    0.40402   0.97587   0.28885   Biso      1.000     C          -0.188674           
         C95       1.0000    0.91560   0.42920   0.82971   Biso      1.000     C          -0.08888  
         C96       1.0000    0.17850   0.49270   0.78007   Biso      1.000     C          -0.084535           
         C97       1.0000    0.58440   0.07080   0.32971   Biso      1.000     C          -0.08888  
         C98       1.0000    0.74730   0.00480   0.31068   Biso      1.000     C          -0.095718           
         C99       1.0000    0.92920   0.58440   0.32971   Biso      1.000     C          -0.088879           
         C100      1.0000    0.73345   0.04776   0.35253   Biso      1.000     C          -0.028374           
         C101      1.0000    0.91830   0.65150   0.36121   Biso      1.000     C          -0.107124           
         C102      1.0000    0.95224   0.73345   0.35253   Biso      1.000     C          -0.02837  
         C103      1.0000    0.65150   0.08170   0.36121   Biso      1.000     C          -0.107118           
         C104      1.0000    0.99520   0.74730   0.31068   Biso      1.000     C          -0.095719           
         C105      1.0000    0.00730   0.67850   0.28007   Biso      1.000     C          -0.084535           
         C106      1.0000    0.44869   0.30363   0.11182   Biso      1.000     C          0.666023  
         C107      1.0000    0.45224   0.23345   0.14747   Biso      1.000     C          -0.028365           
         C108      1.0000    0.80363   0.05131   0.38818   Biso      1.000     C          0.666025  
         C109      1.0000    0.59598   0.02413   0.28885   Biso      1.000     C          -0.188673           
         C110      1.0000    0.90402   0.47587   0.78885   Biso      1.000     C          -0.188674           
         C111      1.0000    0.47587   0.09598   0.21115   Biso      1.000     C          -0.188677           
         C112      1.0000    0.69637   0.44869   0.88818   Biso      1.000     C          0.666024  
         H1        1.0000    0.97020   0.40460   0.16400   Biso      1.000     H          0.102419  
         H2        1.0000    0.30300   0.48410   0.19680   Biso      1.000     H          0.122339  
         H3        1.0000    0.96220   0.31140   0.74740   Biso      1.000     H          0.101189  
         H4        1.0000    0.80300   0.98410   0.30320   Biso      1.000     H          0.122339  
         H5        1.0000    0.59540   0.97020   0.16400   Biso      1.000     H          0.102419  
         H6        1.0000    0.48410   0.69700   0.19680   Biso      1.000     H          0.122339  
         H7        1.0000    0.46220   0.81140   0.24740   Biso      1.000     H          0.101189  
         H8        1.0000    0.02980   0.59540   0.83600   Biso      1.000     H          0.102419  
         H9        1.0000    0.61240   0.85870   0.11140   Biso      1.000     H          0.11232   
         H10       1.0000    0.52980   0.09540   0.66400   Biso      1.000     H          0.102418  
         H11       1.0000    0.14130   0.61240   0.11140   Biso      1.000     H          0.112321  
         H12       1.0000    0.64130   0.11240   0.38860   Biso      1.000     H          0.11232   
         H13       1.0000    0.68860   0.96220   0.74740   Biso      1.000     H          0.101189  
         H14       1.0000    0.14130   0.61240   0.88860   Biso      1.000     H          0.112319  
         H15       1.0000    0.80300   0.98410   0.69680   Biso      1.000     H          0.122342  
         H16       1.0000    0.18860   0.46220   0.24740   Biso      1.000     H          0.101189  
         H17       1.0000    0.02980   0.59540   0.16400   Biso      1.000     H          0.102419  
         H18       1.0000    0.18860   0.46220   0.75260   Biso      1.000     H          0.10119   
         H19       1.0000    0.52980   0.09540   0.33600   Biso      1.000     H          0.102419  
         H20       1.0000    0.64130   0.11240   0.61140   Biso      1.000     H          0.112317  
         H21       1.0000    0.30300   0.48410   0.80320   Biso      1.000     H          0.122339  
         H22       1.0000    0.38760   0.14130   0.11140   Biso      1.000     H          0.112321  
         H23       1.0000    0.40460   0.02980   0.16400   Biso      1.000     H          0.102419  
         H24       1.0000    0.35870   0.88760   0.38860   Biso      1.000     H          0.11232   
         H25       1.0000    0.51590   0.30300   0.19680   Biso      1.000     H          0.122339  
         H26       1.0000    0.09540   0.47020   0.33600   Biso      1.000     H          0.102419  
         H27       1.0000    0.97020   0.40460   0.83600   Biso      1.000     H          0.102419  
         H28       1.0000    0.11240   0.35870   0.38860   Biso      1.000     H          0.11232   
         H29       1.0000    0.98410   0.19700   0.30320   Biso      1.000     H          0.122339  
         H30       1.0000    0.96220   0.31140   0.25260   Biso      1.000     H          0.10119   
         H31       1.0000    0.09540   0.47020   0.66400   Biso      1.000     H          0.102417  
         H32       1.0000    0.88760   0.64130   0.61140   Biso      1.000     H          0.112317  
         H33       1.0000    0.85870   0.38760   0.88860   Biso      1.000     H          0.112319  
         H34       1.0000    0.03780   0.68860   0.25260   Biso      1.000     H          0.10119   
         H35       1.0000    0.01590   0.80300   0.30320   Biso      1.000     H          0.122339  
         H36       1.0000    0.38760   0.14130   0.88860   Biso      1.000     H          0.112319  
         H37       1.0000    0.51590   0.30300   0.80320   Biso      1.000     H          0.122339  
         H38       1.0000    0.88760   0.64130   0.38860   Biso      1.000     H          0.11232   
         H39       1.0000    0.53780   0.18860   0.75260   Biso      1.000     H          0.10119   
         H40       1.0000    0.90460   0.52980   0.66400   Biso      1.000     H          0.102418  
         H41       1.0000    0.90460   0.52980   0.33600   Biso      1.000     H          0.102419  
         H42       1.0000    0.40460   0.02980   0.83600   Biso      1.000     H          0.102419  
         H43       1.0000    0.01590   0.80300   0.69680   Biso      1.000     H          0.122342  
         H44       1.0000    0.69700   0.51590   0.80320   Biso      1.000     H          0.122339  
         H45       1.0000    0.46220   0.81140   0.75260   Biso      1.000     H          0.10119   
         H46       1.0000    0.69700   0.51590   0.19680   Biso      1.000     H          0.122339  
         H47       1.0000    0.81140   0.53780   0.24740   Biso      1.000     H          0.101189  
         H48       1.0000    0.31140   0.03780   0.25260   Biso      1.000     H          0.10119   
         H49       1.0000    0.19700   0.01590   0.30320   Biso      1.000     H          0.122339  
         H50       1.0000    0.47020   0.90460   0.66400   Biso      1.000     H          0.102418  
         H51       1.0000    0.98410   0.19700   0.69680   Biso      1.000     H          0.122342  
         H52       1.0000    0.35870   0.88760   0.61140   Biso      1.000     H          0.112317  
         H53       1.0000    0.19700   0.01590   0.69680   Biso      1.000     H          0.122342  
         H54       1.0000    0.47020   0.90460   0.33600   Biso      1.000     H          0.102419  
         H55       1.0000    0.31140   0.03780   0.74740   Biso      1.000     H          0.101189  
         H56       1.0000    0.11240   0.35870   0.61140   Biso      1.000     H          0.112318  
         H57       1.0000    0.03780   0.68860   0.74740   Biso      1.000     H          0.101189  
         H58       1.0000    0.53780   0.18860   0.24740   Biso      1.000     H          0.101189  
         H59       1.0000    0.59540   0.97020   0.83600   Biso      1.000     H          0.102419  
         H60       1.0000    0.61240   0.85870   0.88860   Biso      1.000     H          0.112319  
         H61       1.0000    0.81140   0.53780   0.75260   Biso      1.000     H          0.10119   
         H62       1.0000    0.48410   0.69700   0.80320   Biso      1.000     H          0.122339  
         H63       1.0000    0.85870   0.38760   0.11140   Biso      1.000     H          0.11232   
         H64       1.0000    0.68860   0.96220   0.25260   Biso      1.000     H          0.10119   
         O1        1.0000    0.93142   0.78109   0.57067   Biso      1.000     O          -0.673475           
         O2        1.0000    0.05376   0.89678   0.45862   Biso      1.000     O          -1.152763           
         O3        1.0000    0.55376   0.39678   0.95862   Biso      1.000     O          -1.152759           
         O4        1.0000    0.46627   0.38158   0.12484   Biso      1.000     O          -0.594661           
         O5        1.0000    0.43142   0.28109   0.07067   Biso      1.000     O          -0.673456           
         O6        1.0000    0.96627   0.88158   0.62484   Biso      1.000     O          -0.59467  
         O7        1.0000    0.44624   0.60322   0.95862   Biso      1.000     O          -1.152759           
         O8        1.0000    0.78109   0.06858   0.42933   Biso      1.000     O          -0.673455           
         O9        1.0000    0.56858   0.71891   0.07067   Biso      1.000     O          -0.673457           
         O10       1.0000    0.55376   0.39678   0.04138   Biso      1.000     O          -1.152761           
         O11       1.0000    0.46627   0.38158   0.87516   Biso      1.000     O          -0.59466  
         O12       1.0000    0.43142   0.28109   0.92933   Biso      1.000     O          -0.673459           
         O13       1.0000    0.05376   0.89678   0.54138   Biso      1.000     O          -1.152759           
         O14       1.0000    0.53373   0.61842   0.12484   Biso      1.000     O          -0.594661           
         O15       1.0000    0.93142   0.78109   0.42933   Biso      1.000     O          -0.673455           
         O16       1.0000    0.60322   0.55376   0.04138   Biso      1.000     O          -1.152761           
         O17       1.0000    0.61842   0.46627   0.87516   Biso      1.000     O          -0.59466  
         O18       1.0000    0.71891   0.43142   0.92933   Biso      1.000     O          -0.673459           
         O19       1.0000    0.10322   0.05376   0.54138   Biso      1.000     O          -1.152759           
         O20       1.0000    0.11842   0.96627   0.37516   Biso      1.000     O          -0.59466  
         O21       1.0000    0.21891   0.93142   0.42933   Biso      1.000     O          -0.673455           
         O22       1.0000    0.39678   0.44624   0.04138   Biso      1.000     O          -1.152761           
         O23       1.0000    0.38158   0.53373   0.87516   Biso      1.000     O          -0.59466  
         O24       1.0000    0.28109   0.56858   0.92933   Biso      1.000     O          -0.673459           
         O25       1.0000    0.89678   0.94624   0.54138   Biso      1.000     O          -1.152759           
         O26       1.0000    0.88158   0.03373   0.37516   Biso      1.000     O          -0.59466  
         O27       1.0000    0.06858   0.21891   0.42933   Biso      1.000     O          -0.673455           
         O28       1.0000    0.03373   0.11842   0.37516   Biso      1.000     O          -0.59466  
         O29       1.0000    0.96627   0.88158   0.37516   Biso      1.000     O          -0.59466  
         O30       1.0000    0.56858   0.71891   0.92933   Biso      1.000     O          -0.673459           
         O31       1.0000    0.94624   0.10322   0.45862   Biso      1.000     O          -1.152763           
         O32       1.0000    0.94624   0.10322   0.54138   Biso      1.000     O          -1.152759           
         O33       1.0000    0.06858   0.21891   0.57067   Biso      1.000     O          -0.673474           
         O34       1.0000    0.39678   0.44624   0.95862   Biso      1.000     O          -1.152759           
         O35       1.0000    0.38158   0.53373   0.12484   Biso      1.000     O          -0.594661           
         O36       1.0000    0.28109   0.56858   0.07067   Biso      1.000     O          -0.673456           
         O37       1.0000    0.89678   0.94624   0.45862   Biso      1.000     O          -1.152763           
         O38       1.0000    0.88158   0.03373   0.62484   Biso      1.000     O          -0.59467  
         O39       1.0000    0.78109   0.06858   0.57067   Biso      1.000     O          -0.673475           
         O40       1.0000    0.03373   0.11842   0.62484   Biso      1.000     O          -0.59467  
         O41       1.0000    0.61842   0.46627   0.12484   Biso      1.000     O          -0.594661           
         O42       1.0000    0.71891   0.43142   0.07067   Biso      1.000     O          -0.673457           
         O43       1.0000    0.10322   0.05376   0.45862   Biso      1.000     O          -1.152763           
         O44       1.0000    0.11842   0.96627   0.62484   Biso      1.000     O          -0.59467  
         O45       1.0000    0.21891   0.93142   0.57067   Biso      1.000     O          -0.673475           
         O46       1.0000    0.44624   0.60322   0.04138   Biso      1.000     O          -1.152761           
         O47       1.0000    0.53373   0.61842   0.87516   Biso      1.000     O          -0.59466  
         O48       1.0000    0.60322   0.55376   0.95862   Biso      1.000     O          -1.152759           
         Si1       1.0000    0.00000   0.50000   0.25000   Biso      1.000     Si          0.644086  
         Si2       1.0000    0.50000   0.00000   0.25000   Biso      1.000     Si          0.644084  
         Si3       1.0000    0.00000   0.50000   0.75000   Biso      1.000     Si          0.644085  
         Si4       1.0000    0.50000   0.00000   0.75000   Biso      1.000     Si          0.644086  
         Zr1       1.0000    0.34321   0.55007   0.00000   Biso      1.000     Zr          2.293585  
         Zr2       1.0000    0.94993   0.84321   0.50000   Biso      1.000     Zr          2.293589  
         Zr3       1.0000    0.44993   0.34321   0.00000   Biso      1.000     Zr          2.293585  
         Zr4       1.0000    0.05007   0.15679   0.50000   Biso      1.000     Zr          2.293589  
         Zr5       1.0000    0.55007   0.65679   0.00000   Biso      1.000     Zr          2.293585  
         Zr6       1.0000    0.00000   0.00000   0.41456   Biso      1.000     Zr          2.408323  
         Zr7       1.0000    0.50000   0.50000   0.91456   Biso      1.000     Zr          2.408322  
         Zr8       1.0000    0.00000   0.00000   0.58543   Biso      1.000     Zr          2.408405  
         Zr9       1.0000    0.50000   0.50000   0.08544   Biso      1.000     Zr          2.408321  
         Zr10      1.0000    0.84321   0.05007   0.50000   Biso      1.000     Zr          2.293589  
         Zr11      1.0000    0.15679   0.94993   0.50000   Biso      1.000     Zr          2.293589  
         Zr12      1.0000    0.65679   0.44993   0.00000   Biso      1.000     Zr          2.293585 