data_image0
_cell_length_a       21.698
_cell_length_b       21.698
_cell_length_c       6.869
_cell_angle_alpha    90
_cell_angle_beta     90
_cell_angle_gamma    120

_symmetry_space_group_name_H-M    "P 1"
_symmetry_int_tables_number       1

loop_
  _symmetry_equiv_pos_as_xyz
  'x, y, z'

loop_
  _atom_site_label
  _atom_site_occupancy
  _atom_site_fract_x
  _atom_site_fract_y
  _atom_site_fract_z
  _atom_site_thermal_displace_type
  _atom_site_B_iso_or_equiv
  _atom_site_type_symbol
  _atom_site_charge
  C1       1.0000 0.61380  0.17440  0.87870  Biso   1.000  C  0.338414
  C2       1.0000 0.82560  0.43940  0.54537  Biso   1.000  C  0.339058
  C3       1.0000 0.56060  0.38620  0.21203  Biso   1.000  C  0.336529
  C4       1.0000 0.17440  0.61380  0.12130  Biso   1.000  C  0.338414
  C5       1.0000 0.43940  0.82560  0.45463  Biso   1.000  C  0.339058
  C6       1.0000 0.38620  0.56060  0.78797  Biso   1.000  C  0.336529
  C7       1.0000 0.59400  0.16490  0.68100  Biso   1.000  C  -0.194086
  C8       1.0000 0.83510  0.42910  0.34767  Biso   1.000  C  -0.195146
  C9       1.0000 0.57090  0.40600  0.01433  Biso   1.000  C  -0.194340
  C10      1.0000 0.16490  0.59400  0.31900  Biso   1.000  C  -0.194086
  C11      1.0000 0.42910  0.83510  0.65233  Biso   1.000  C  -0.195146
  C12      1.0000 0.40600  0.57090  0.98567  Biso   1.000  C  -0.194340
  C13      1.0000 0.56020  0.09580  0.60290  Biso   1.000  C  -0.157319
  C14      1.0000 0.90420  0.46440  0.26957  Biso   1.000  C  -0.154907
  C15      1.0000 0.53560  0.43980  0.93623  Biso   1.000  C  -0.154868
  C16      1.0000 0.09580  0.56020  0.39710  Biso   1.000  C  -0.157319
  C17      1.0000 0.46440  0.90420  0.73043  Biso   1.000  C  -0.154907
  C18      1.0000 0.43980  0.53560  0.06377  Biso   1.000  C  -0.154868
  C19      1.0000 0.54490  0.03550  0.71050  Biso   1.000  C  0.042515
  C20      1.0000 0.96450  0.50940  0.37717  Biso   1.000  C  0.043291
  C21      1.0000 0.49060  0.45510  0.04383  Biso   1.000  C  0.042734
  C22      1.0000 0.03550  0.54490  0.28950  Biso   1.000  C  0.042515
  C23      1.0000 0.50940  0.96450  0.62283  Biso   1.000  C  0.043291
  C24      1.0000 0.45510  0.49060  0.95617  Biso   1.000  C  0.042734
  C25      1.0000 0.56380  0.04650  0.90890  Biso   1.000  C  -0.122733
  C26      1.0000 0.95350  0.51730  0.57557  Biso   1.000  C  -0.124150
  C27      1.0000 0.48270  0.43620  0.24223  Biso   1.000  C  -0.123921
  C28      1.0000 0.04650  0.56380  0.09110  Biso   1.000  C  -0.122733
  C29      1.0000 0.51730  0.95350  0.42443  Biso   1.000  C  -0.124150
  C30      1.0000 0.43620  0.48270  0.75777  Biso   1.000  C  -0.123921
  C31      1.0000 0.59620  0.11320  0.99110  Biso   1.000  C  -0.220328
  C32      1.0000 0.88680  0.48300  0.65777  Biso   1.000  C  -0.220944
  C33      1.0000 0.51700  0.40380  0.32443  Biso   1.000  C  -0.217110
  C34      1.0000 0.11320  0.59620  0.00890  Biso   1.000  C  -0.220328
  C35      1.0000 0.48300  0.88680  0.34223  Biso   1.000  C  -0.220944
  C36      1.0000 0.40380  0.51700  0.67557  Biso   1.000  C  -0.217110
  C37      1.0000 0.60500  0.22290  0.54810  Biso   1.000  C  0.601920
  C38      1.0000 0.77710  0.38210  0.21477  Biso   1.000  C  0.601474
  C39      1.0000 0.61790  0.39500  0.88143  Biso   1.000  C  0.599418
  C40      1.0000 0.22290  0.60500  0.45190  Biso   1.000  C  0.601920
  C41      1.0000 0.38210  0.77710  0.78523  Biso   1.000  C  0.601474
  C42      1.0000 0.39500  0.61790  0.11857  Biso   1.000  C  0.599418
  C43      1.0000 0.49260  0.23590  0.86940  Biso   1.000  C  0.311895
  C44      1.0000 0.76410  0.25670  0.53607  Biso   1.000  C  0.311421
  C45      1.0000 0.74330  0.50740  0.20273  Biso   1.000  C  0.311079
  C46      1.0000 0.23590  0.49260  0.13060  Biso   1.000  C  0.311895
  C47      1.0000 0.25670  0.76410  0.46393  Biso   1.000  C  0.311421
  C48      1.0000 0.50740  0.74330  0.79727  Biso   1.000  C  0.311079
  C49      1.0000 0.36520  0.18910  0.92450  Biso   1.000  C  -0.040890
  C50      1.0000 0.81090  0.17610  0.59117  Biso   1.000  C  -0.040548
  C51      1.0000 0.82390  0.63480  0.25783  Biso   1.000  C  -0.040240
  C52      1.0000 0.18910  0.36520  0.07550  Biso   1.000  C  -0.040890
  C53      1.0000 0.17610  0.81090  0.40883  Biso   1.000  C  -0.040548
  C54      1.0000 0.63480  0.82390  0.74217  Biso   1.000  C  -0.040240
  C55      1.0000 0.35690  0.25170  0.01100  Biso   1.000  C  -0.462214
  C56      1.0000 0.74830  0.10520  0.67767  Biso   1.000  C  -0.465508
  C57      1.0000 0.89480  0.64310  0.34433  Biso   1.000  C  -0.463080
  C58      1.0000 0.25170  0.35690  0.98900  Biso   1.000  C  -0.462214
  C59      1.0000 0.10520  0.74830  0.32233  Biso   1.000  C  -0.465508
  C60      1.0000 0.64310  0.89480  0.65567  Biso   1.000  C  -0.463080
  C61      1.0000 0.42760  0.22670  0.57930  Biso   1.000  C  -0.038009
  C62      1.0000 0.77330  0.20090  0.24597  Biso   1.000  C  -0.037287
  C63      1.0000 0.79910  0.57240  0.91263  Biso   1.000  C  -0.038253
  C64      1.0000 0.22670  0.42760  0.42070  Biso   1.000  C  -0.038009
  C65      1.0000 0.20090  0.77330  0.75403  Biso   1.000  C  -0.037287
  C66      1.0000 0.57240  0.79910  0.08737  Biso   1.000  C  -0.038253
  C67      1.0000 0.39960  0.15600  0.47000  Biso   1.000  C  -0.462380
  C68      1.0000 0.84400  0.24360  0.13667  Biso   1.000  C  -0.461945
  C69      1.0000 0.75640  0.60040  0.80333  Biso   1.000  C  -0.462747
  C70      1.0000 0.15600  0.39960  0.53000  Biso   1.000  C  -0.462380
  C71      1.0000 0.24360  0.84400  0.86333  Biso   1.000  C  -0.461945
  C72      1.0000 0.60040  0.75640  0.19667  Biso   1.000  C  -0.462747
  H1       1.0000 0.54700  0.08980  0.46940  Biso   1.000  H  0.114883
  H2       1.0000 0.91020  0.45720  0.13607  Biso   1.000  H  0.113580
  H3       1.0000 0.54280  0.45300  0.80273  Biso   1.000  H  0.113400
  H4       1.0000 0.08980  0.54700  0.53060  Biso   1.000  H  0.114883
  H5       1.0000 0.45720  0.91020  0.86393  Biso   1.000  H  0.113580
  H6       1.0000 0.45300  0.54280  0.19727  Biso   1.000  H  0.113400
  H7       1.0000 0.55380  0.00670  0.98810  Biso   1.000  H  0.105247
  H8       1.0000 0.99330  0.54710  0.65477  Biso   1.000  H  0.105699
  H9       1.0000 0.45290  0.44620  0.32143  Biso   1.000  H  0.105065
  H10      1.0000 0.00670  0.55380  0.01190  Biso   1.000  H  0.105247
  H11      1.0000 0.54710  0.99330  0.34523  Biso   1.000  H  0.105699
  H12      1.0000 0.44620  0.45290  0.67857  Biso   1.000  H  0.105065
  H13      1.0000 0.60700  0.11820  0.12620  Biso   1.000  H  0.124452
  H14      1.0000 0.88180  0.48880  0.79287  Biso   1.000  H  0.125707
  H15      1.0000 0.51120  0.39300  0.45953  Biso   1.000  H  0.123255
  H16      1.0000 0.11820  0.60700  0.87380  Biso   1.000  H  0.124452
  H17      1.0000 0.48880  0.88180  0.20713  Biso   1.000  H  0.125707
  H18      1.0000 0.39300  0.51120  0.54047  Biso   1.000  H  0.123255
  H19      1.0000 0.53270  0.25840  0.78540  Biso   1.000  H  0.053386
  H20      1.0000 0.74160  0.27430  0.45207  Biso   1.000  H  0.052480
  H21      1.0000 0.72570  0.46730  0.11873  Biso   1.000  H  0.052821
  H22      1.0000 0.25840  0.53270  0.21460  Biso   1.000  H  0.053386
  H23      1.0000 0.27430  0.74160  0.54793  Biso   1.000  H  0.052480
  H24      1.0000 0.46730  0.72570  0.88127  Biso   1.000  H  0.052821
  H25      1.0000 0.37010  0.16160  0.03250  Biso   1.000  H  0.097915
  H26      1.0000 0.83840  0.20850  0.69917  Biso   1.000  H  0.098698
  H27      1.0000 0.79150  0.62990  0.36583  Biso   1.000  H  0.097823
  H28      1.0000 0.16160  0.37010  0.96750  Biso   1.000  H  0.097915
  H29      1.0000 0.20850  0.83840  0.30083  Biso   1.000  H  0.098698
  H30      1.0000 0.62990  0.79150  0.63417  Biso   1.000  H  0.097823
  H31      1.0000 0.32180  0.15660  0.85040  Biso   1.000  H  0.090324
  H32      1.0000 0.84340  0.16520  0.51707  Biso   1.000  H  0.089941
  H33      1.0000 0.83480  0.67820  0.18373  Biso   1.000  H  0.090055
  H34      1.0000 0.15660  0.32180  0.14960  Biso   1.000  H  0.090324
  H35      1.0000 0.16520  0.84340  0.48293  Biso   1.000  H  0.089941
  H36      1.0000 0.67820  0.83480  0.81627  Biso   1.000  H  0.090055
  H37      1.0000 0.40410  0.29280  0.03620  Biso   1.000  H  0.156754
  H38      1.0000 0.70720  0.11130  0.70287  Biso   1.000  H  0.157092
  H39      1.0000 0.88870  0.59590  0.36953  Biso   1.000  H  0.156844
  H40      1.0000 0.29280  0.40410  0.96380  Biso   1.000  H  0.156754
  H41      1.0000 0.11130  0.70720  0.29713  Biso   1.000  H  0.157092
  H42      1.0000 0.59590  0.88870  0.63047  Biso   1.000  H  0.156844
  H43      1.0000 0.33000  0.23620  0.13320  Biso   1.000  H  0.146383
  H44      1.0000 0.76380  0.09380  0.79987  Biso   1.000  H  0.146886
  H45      1.0000 0.90620  0.67000  0.46653  Biso   1.000  H  0.145801
  H46      1.0000 0.23620  0.33000  0.86680  Biso   1.000  H  0.146383
  H47      1.0000 0.09380  0.76380  0.20013  Biso   1.000  H  0.146886
  H48      1.0000 0.67000  0.90620  0.53347  Biso   1.000  H  0.145801
  H49      1.0000 0.33140  0.26500  0.91790  Biso   1.000  H  0.142020
  H50      1.0000 0.73500  0.06640  0.58457  Biso   1.000  H  0.143463
  H51      1.0000 0.93360  0.66860  0.25123  Biso   1.000  H  0.143282
  H52      1.0000 0.26500  0.33140  0.08210  Biso   1.000  H  0.142020
  H53      1.0000 0.06640  0.73500  0.41543  Biso   1.000  H  0.143463
  H54      1.0000 0.66860  0.93360  0.74877  Biso   1.000  H  0.143282
  H55      1.0000 0.47620  0.26090  0.53340  Biso   1.000  H  0.114957
  H56      1.0000 0.73910  0.21530  0.20007  Biso   1.000  H  0.114022
  H57      1.0000 0.78470  0.52380  0.86673  Biso   1.000  H  0.114992
  H58      1.0000 0.26090  0.47620  0.46660  Biso   1.000  H  0.114957
  H59      1.0000 0.21530  0.73910  0.79993  Biso   1.000  H  0.114022
  H60      1.0000 0.52380  0.78470  0.13327  Biso   1.000  H  0.114991
  H61      1.0000 0.39670  0.24710  0.55150  Biso   1.000  H  0.086389
  H62      1.0000 0.75290  0.14960  0.21817  Biso   1.000  H  0.087029
  H63      1.0000 0.85040  0.60330  0.88483  Biso   1.000  H  0.087135
  H64      1.0000 0.24710  0.39670  0.44850  Biso   1.000  H  0.086389
  H65      1.0000 0.14960  0.75290  0.78183  Biso   1.000  H  0.087029
  H66      1.0000 0.60330  0.85040  0.11517  Biso   1.000  H  0.087135
  H67      1.0000 0.36440  0.11700  0.55110  Biso   1.000  H  0.138134
  H68      1.0000 0.88300  0.24740  0.21777  Biso   1.000  H  0.136916
  H69      1.0000 0.75260  0.63560  0.88443  Biso   1.000  H  0.138177
  H70      1.0000 0.11700  0.36440  0.44890  Biso   1.000  H  0.138134
  H71      1.0000 0.24740  0.88300  0.78223  Biso   1.000  H  0.136916
  H72      1.0000 0.63560  0.75260  0.11557  Biso   1.000  H  0.138178
  H73      1.0000 0.43930  0.14780  0.44190  Biso   1.000  H  0.163554
  H74      1.0000 0.85220  0.29150  0.10857  Biso   1.000  H  0.164550
  H75      1.0000 0.70850  0.56070  0.77523  Biso   1.000  H  0.164513
  H76      1.0000 0.14780  0.43930  0.55810  Biso   1.000  H  0.163554
  H77      1.0000 0.29150  0.85220  0.89143  Biso   1.000  H  0.164550
  H78      1.0000 0.56070  0.70850  0.22477  Biso   1.000  H  0.164513
  H79      1.0000 0.37740  0.15790  0.34800  Biso   1.000  H  0.145061
  H80      1.0000 0.84210  0.21950  0.01467  Biso   1.000  H  0.144310
  H81      1.0000 0.78050  0.62260  0.68133  Biso   1.000  H  0.144352
  H82      1.0000 0.15790  0.37740  0.65200  Biso   1.000  H  0.145061
  H83      1.0000 0.21950  0.84210  0.98533  Biso   1.000  H  0.144310
  H84      1.0000 0.62260  0.78050  0.31867  Biso   1.000  H  0.144352
  N1       1.0000 0.42910  0.21590  0.79230  Biso   1.000  N  -0.070506
  N2       1.0000 0.78410  0.21320  0.45897  Biso   1.000  N  -0.069698
  N3       1.0000 0.78680  0.57090  0.12563  Biso   1.000  N  -0.070989
  N4       1.0000 0.21590  0.42910  0.20770  Biso   1.000  N  -0.070506
  N5       1.0000 0.21320  0.78410  0.54103  Biso   1.000  N  -0.069698
  N6       1.0000 0.57090  0.78680  0.87437  Biso   1.000  N  -0.070989
  O1       1.0000 0.64900  0.23825  0.96900  Biso   1.000  O  -0.604833
  O2       1.0000 0.76175  0.41075  0.63567  Biso   1.000  O  -0.606179
  O3       1.0000 0.58925  0.35100  0.30233  Biso   1.000  O  -0.604068
  O4       1.0000 0.23825  0.64900  0.03100  Biso   1.000  O  -0.604833
  O5       1.0000 0.41075  0.76175  0.36433  Biso   1.000  O  -0.606179
  O6       1.0000 0.35100  0.58925  0.69767  Biso   1.000  O  -0.604068
  O7       1.0000 0.63628  0.28621  0.61130  Biso   1.000  O  -0.587915
  O8       1.0000 0.71379  0.35007  0.27797  Biso   1.000  O  -0.587719
  O9       1.0000 0.64993  0.36372  0.94463  Biso   1.000  O  -0.586924
  O10      1.0000 0.28621  0.63628  0.38870  Biso   1.000  O  -0.587915
  O11      1.0000 0.35007  0.71379  0.72203  Biso   1.000  O  -0.587719
  O12      1.0000 0.36372  0.64993  0.05537  Biso   1.000  O  -0.586925
  O13      1.0000 0.58207  0.20738  0.37380  Biso   1.000  O  -0.544895
  O14      1.0000 0.79262  0.37469  0.04047  Biso   1.000  O  -0.544578
  O15      1.0000 0.62531  0.41793  0.70713  Biso   1.000  O  -0.542787
  O16      1.0000 0.20738  0.58207  0.62620  Biso   1.000  O  -0.544896
  O17      1.0000 0.37469  0.79262  0.95953  Biso   1.000  O  -0.544578
  O18      1.0000 0.41793  0.62531  0.29287  Biso   1.000  O  -0.542787
  O19      1.0000 0.50364  0.22770  0.03790  Biso   1.000  O  -0.442123
  O20      1.0000 0.77230  0.27594  0.70457  Biso   1.000  O  -0.441172
  O21      1.0000 0.72406  0.49636  0.37123  Biso   1.000  O  -0.440859
  O22      1.0000 0.22770  0.50364  0.96210  Biso   1.000  O  -0.442123
  O23      1.0000 0.27594  0.77230  0.29543  Biso   1.000  O  -0.441172
  O24      1.0000 0.49636  0.72406  0.62877  Biso   1.000  O  -0.440859
  Zn1      1.0000 0.60639  0.27947  0.15793  Biso   1.000  Zn  0.973552
  Zn2      1.0000 0.72053  0.32692  0.82460  Biso   1.000  Zn  0.973967
  Zn3      1.0000 0.67308  0.39361  0.49126  Biso   1.000  Zn  0.973585
  Zn4      1.0000 0.27947  0.60639  0.84207  Biso   1.000  Zn  0.973552
  Zn5      1.0000 0.32692  0.72053  0.17540  Biso   1.000  Zn  0.973968
  Zn6      1.0000 0.39361  0.67308  0.50874  Biso   1.000  Zn  0.973585
