data_image0
_cell_length_a       7.4114
_cell_length_b       11.5597
_cell_length_c       20.5406
_cell_angle_alpha    87.343
_cell_angle_beta     82.433
_cell_angle_gamma    73.09

_symmetry_space_group_name_H-M    "P 1"
_symmetry_int_tables_number       1

loop_
  _symmetry_equiv_pos_as_xyz
  'x, y, z'

loop_
  _atom_site_label
  _atom_site_occupancy
  _atom_site_fract_x
  _atom_site_fract_y
  _atom_site_fract_z
  _atom_site_thermal_displace_type
  _atom_site_B_iso_or_equiv
  _atom_site_type_symbol
  _atom_site_charge
  C1       1.0000 0.14550  0.52310  0.55970  Biso   1.000  C  -0.158696
  C2       1.0000 0.85450  0.47690  0.44030  Biso   1.000  C  -0.157525
  C3       1.0000 0.31770  0.15880  0.95840  Biso   1.000  C  -0.045166
  C4       1.0000 0.68230  0.84120  0.04160  Biso   1.000  C  -0.045328
  C5       1.0000 0.31930  0.55060  0.45310  Biso   1.000  C  0.111360
  C6       1.0000 0.68070  0.44940  0.54690  Biso   1.000  C  0.111854
  C7       1.0000 0.27490  0.11380  0.01960  Biso   1.000  C  -0.106725
  C8       1.0000 0.72510  0.88620  0.98040  Biso   1.000  C  -0.108046
  C9       1.0000 0.34340  0.73670  0.41310  Biso   1.000  C  0.147225
  C10      1.0000 0.65660  0.26330  0.58690  Biso   1.000  C  0.146274
  C11      1.0000 0.26330  0.65620  0.94540  Biso   1.000  C  -0.063811
  C12      1.0000 0.73670  0.34380  0.05460  Biso   1.000  C  -0.063969
  C13      1.0000 0.15460  0.65830  0.06080  Biso   1.000  C  0.136744
  C14      1.0000 0.84540  0.34170  0.93920  Biso   1.000  C  0.136322
  C15      1.0000 0.23690  0.47820  0.00491  Biso   1.000  C  0.100212
  C16      1.0000 0.76310  0.52180  0.99509  Biso   1.000  C  0.100192
  C17      1.0000 0.29230  0.34920  0.48870  Biso   1.000  C  0.057781
  C18      1.0000 0.70770  0.65080  0.51130  Biso   1.000  C  0.058103
  C19      1.0000 0.25150  0.35260  0.00780  Biso   1.000  C  0.099011
  C20      1.0000 0.74850  0.64740  0.99220  Biso   1.000  C  0.096774
  C21      1.0000 0.36200  0.42490  0.44216  Biso   1.000  C  0.105661
  C22      1.0000 0.63800  0.57510  0.55784  Biso   1.000  C  0.104626
  C23      1.0000 0.19730  0.72020  0.00290  Biso   1.000  C  -0.108961
  C24      1.0000 0.80270  0.27980  0.99710  Biso   1.000  C  -0.108224
  C25      1.0000 0.16920  0.72660  0.51890  Biso   1.000  C  -0.059864
  C26      1.0000 0.83080  0.27340  0.48110  Biso   1.000  C  -0.061818
  C27      1.0000 0.30910  0.28230  0.95120  Biso   1.000  C  0.063414
  C28      1.0000 0.69090  0.71770  0.04880  Biso   1.000  C  0.065769
  C29      1.0000 0.21830  0.19070  0.07400  Biso   1.000  C  0.152249
  C30      1.0000 0.78170  0.80930  0.92600  Biso   1.000  C  0.153197
  C31      1.0000 0.51030  0.26550  0.37140  Biso   1.000  C  0.155746
  C32      1.0000 0.48970  0.73450  0.62860  Biso   1.000  C  0.156507
  C33      1.0000 0.28190  0.53270  0.94460  Biso   1.000  C  0.041150
  C34      1.0000 0.71810  0.46730  0.05540  Biso   1.000  C  0.041921
  C35      1.0000 0.44120  0.18610  0.41390  Biso   1.000  C  -0.089369
  C36      1.0000 0.55880  0.81390  0.58610  Biso   1.000  C  -0.088965
  C37      1.0000 0.20960  0.60130  0.51140  Biso   1.000  C  0.056080
  C38      1.0000 0.79040  0.39870  0.48860  Biso   1.000  C  0.054706
  C39      1.0000 0.18420  0.40340  0.54840  Biso   1.000  C  -0.124063
  C40      1.0000 0.81580  0.59660  0.45160  Biso   1.000  C  -0.124091
  C41      1.0000 0.23390  0.79450  0.46970  Biso   1.000  C  -0.092632
  C42      1.0000 0.76610  0.20550  0.53030  Biso   1.000  C  -0.091338
  C43      1.0000 0.33340  0.22790  0.47320  Biso   1.000  C  -0.066825
  C44      1.0000 0.66660  0.77210  0.52680  Biso   1.000  C  -0.065549
  C45      1.0000 0.33980  0.45880  0.88700  Biso   1.000  C  -0.136451
  C46      1.0000 0.66020  0.54120  0.11300  Biso   1.000  C  -0.137589
  C47      1.0000 0.35060  0.33940  0.89030  Biso   1.000  C  -0.089482
  C48      1.0000 0.64940  0.66060  0.10970  Biso   1.000  C  -0.089512
  Cu1      1.0000 0.11064  0.43763  0.13728  Biso   1.000  Cu  0.901668
  Cu2      1.0000 0.88936  0.56237  0.86272  Biso   1.000  Cu  0.902726
  Cu3      1.0000 0.54588  0.51405  0.33142  Biso   1.000  Cu  0.963524
  Cu4      1.0000 0.45412  0.48595  0.66858  Biso   1.000  Cu  0.980502
  H1       1.0000 0.07510  0.55590  0.60010  Biso   1.000  H  0.139723
  H2       1.0000 0.92490  0.44410  0.39990  Biso   1.000  H  0.139782
  H3       1.0000 0.35280  0.10740  0.92120  Biso   1.000  H  0.138386
  H4       1.0000 0.64720  0.89260  0.07880  Biso   1.000  H  0.138699
  H5       1.0000 0.28370  0.03040  0.02510  Biso   1.000  H  0.135983
  H6       1.0000 0.71630  0.96960  0.97490  Biso   1.000  H  0.136071
  H7       1.0000 0.38910  0.78390  0.37940  Biso   1.000  H  0.113330
  H8       1.0000 0.61090  0.21610  0.62060  Biso   1.000  H  0.113637
  H9       1.0000 0.29610  0.69630  0.90620  Biso   1.000  H  0.133139
  H10      1.0000 0.70390  0.30370  0.09380  Biso   1.000  H  0.132912
  H11      1.0000 0.11070  0.70240  0.10050  Biso   1.000  H  0.102728
  H12      1.0000 0.88930  0.29760  0.89950  Biso   1.000  H  0.102025
  H13      1.0000 0.18100  0.80480  0.00340  Biso   1.000  H  0.144003
  H14      1.0000 0.81900  0.19520  0.99660  Biso   1.000  H  0.143888
  H15      1.0000 0.09720  0.76440  0.55800  Biso   1.000  H  0.132377
  H16      1.0000 0.90280  0.23560  0.44200  Biso   1.000  H  0.132081
  H17      1.0000 0.18770  0.15830  0.11600  Biso   1.000  H  0.124771
  H18      1.0000 0.81230  0.84170  0.88400  Biso   1.000  H  0.124830
  H19      1.0000 0.58640  0.23540  0.33140  Biso   1.000  H  0.118000
  H20      1.0000 0.41360  0.76460  0.66860  Biso   1.000  H  0.118658
  H21      1.0000 0.46780  0.10370  0.40230  Biso   1.000  H  0.141483
  H22      1.0000 0.53220  0.89630  0.59770  Biso   1.000  H  0.141860
  H23      1.0000 0.13880  0.35400  0.58090  Biso   1.000  H  0.134459
  H24      1.0000 0.86120  0.64600  0.41910  Biso   1.000  H  0.134683
  H25      1.0000 0.20480  0.87960  0.47390  Biso   1.000  H  0.141206
  H26      1.0000 0.79520  0.12040  0.52610  Biso   1.000  H  0.141296
  H27      1.0000 0.28830  0.17410  0.50280  Biso   1.000  H  0.138914
  H28      1.0000 0.71170  0.82590  0.49720  Biso   1.000  H  0.139006
  H29      1.0000 0.37120  0.49390  0.84590  Biso   1.000  H  0.139728
  H30      1.0000 0.62880  0.50610  0.15410  Biso   1.000  H  0.139524
  H31      1.0000 0.38630  0.29300  0.85120  Biso   1.000  H  0.137033
  H32      1.0000 0.61370  0.70700  0.14880  Biso   1.000  H  0.137334
  H33      1.0000 0.74300  0.59900  0.26100  Biso   1.000  H  0.441833
  H34      1.0000 0.25700  0.40100  0.73900  Biso   1.000  H  0.441769
  H35      1.0000 0.62700  0.71800  0.29100  Biso   1.000  H  0.441815
  H36      1.0000 0.37300  0.28200  0.70900  Biso   1.000  H  0.441936
  N1       1.0000 0.47260  0.38160  0.38514  Biso   1.000  N  -0.267606
  N2       1.0000 0.52740  0.61840  0.61486  Biso   1.000  N  -0.267390
  N3       1.0000 0.20640  0.30770  0.06849  Biso   1.000  N  -0.276410
  N4       1.0000 0.79360  0.69230  0.93151  Biso   1.000  N  -0.275205
  N5       1.0000 0.17360  0.54080  0.06190  Biso   1.000  N  -0.288653
  N6       1.0000 0.82640  0.45920  0.93810  Biso   1.000  N  -0.291083
  N7       1.0000 0.38570  0.61740  0.40493  Biso   1.000  N  -0.289640
  N8       1.0000 0.61430  0.38260  0.59507  Biso   1.000  N  -0.290852
  O1       1.0000 0.43330  0.88510  0.20969  Biso   1.000  O  -0.795238
  O2       1.0000 0.56670  0.11490  0.79031  Biso   1.000  O  -0.795438
  O3       1.0000 0.82770  0.03770  0.30705  Biso   1.000  O  -0.999390
  O4       1.0000 0.17230  0.96230  0.69295  Biso   1.000  O  -0.997183
  O5       1.0000 0.62940  0.64090  0.28064  Biso   1.000  O  -0.757440
  O6       1.0000 0.37060  0.35910  0.71936  Biso   1.000  O  -0.761492
  O7       1.0000 0.98190  0.70060  0.29673  Biso   1.000  O  -0.796949
  O8       1.0000 0.01810  0.29940  0.70327  Biso   1.000  O  -0.791957
  O9       1.0000 0.63480  0.87860  0.29623  Biso   1.000  O  -0.835876
  O10      1.0000 0.36520  0.12140  0.70377  Biso   1.000  O  -0.834902
  O11      1.0000 0.97420  0.22250  0.30246  Biso   1.000  O  -0.778500
  O12      1.0000 0.02580  0.77750  0.69754  Biso   1.000  O  -0.788378
  O13      1.0000 0.13130  0.88500  0.30399  Biso   1.000  O  -1.013309
  O14      1.0000 0.86870  0.11500  0.69601  Biso   1.000  O  -1.010661
  O15      1.0000 0.24460  0.70640  0.20652  Biso   1.000  O  -0.791928
  O16      1.0000 0.75540  0.29360  0.79348  Biso   1.000  O  -0.787387
  O17      1.0000 0.03400  0.32440  0.19569  Biso   1.000  O  -0.733699
  O18      1.0000 0.96600  0.67560  0.80431  Biso   1.000  O  -0.734053
  O19      1.0000 0.77200  0.22320  0.21259  Biso   1.000  O  -0.786600
  O20      1.0000 0.22800  0.77680  0.78741  Biso   1.000  O  -0.794978
  O21      1.0000 0.93520  0.88840  0.19931  Biso   1.000  O  -1.014199
  O22      1.0000 0.06480  0.11160  0.80069  Biso   1.000  O  -1.013433
  O23      1.0000 0.09360  0.04450  0.20236  Biso   1.000  O  -1.016632
  O24      1.0000 0.90640  0.95550  0.79764  Biso   1.000  O  -1.013888
  O25      1.0000 0.85480  0.06760  0.11004  Biso   1.000  O  -0.655718
  O26      1.0000 0.14520  0.93240  0.88996  Biso   1.000  O  -0.652311
  O27      1.0000 0.24410  0.87410  0.11056  Biso   1.000  O  -0.654139
  O28      1.0000 0.75590  0.12590  0.88944  Biso   1.000  O  -0.652625
  O29      1.0000 0.03220  0.57100  0.19914  Biso   1.000  O  -0.742885
  O30      1.0000 0.96780  0.42900  0.80086  Biso   1.000  O  -0.735725
  O31      1.0000 0.05450  0.05450  0.39708  Biso   1.000  O  -0.633911
  O32      1.0000 0.94550  0.94550  0.60292  Biso   1.000  O  -0.640066
  O33      1.0000 0.85160  0.85890  0.39587  Biso   1.000  O  -0.657720
  O34      1.0000 0.14840  0.14110  0.60413  Biso   1.000  O  -0.659088
  O35      1.0000 0.27320  0.52410  0.27845  Biso   1.000  O  -0.686246
  O36      1.0000 0.72680  0.47590  0.72155  Biso   1.000  O  -0.699274
  O37      1.0000 0.73260  0.41200  0.27081  Biso   1.000  O  -0.799087
  O38      1.0000 0.26740  0.58800  0.72919  Biso   1.000  O  -0.803391
  O39      1.0000 0.32740  0.04550  0.29771  Biso   1.000  O  -0.788387
  O40      1.0000 0.67260  0.95450  0.70229  Biso   1.000  O  -0.790718
  O41      1.0000 0.59040  0.04960  0.21091  Biso   1.000  O  -0.777969
  O42      1.0000 0.40960  0.95040  0.78909  Biso   1.000  O  -0.777135
  O43      1.0000 0.39130  0.32850  0.21086  Biso   1.000  O  -0.065936
  O44      1.0000 0.60870  0.67150  0.78914  Biso   1.000  O  -0.064949
  P1       1.0000 0.87955  0.29809  0.24532  Biso   1.000  P  1.625174
  P2       1.0000 0.12045  0.70191  0.75468  Biso   1.000  P  1.627914
  P3       1.0000 0.12836  0.62867  0.24303  Biso   1.000  P  1.579746
  P4       1.0000 0.87164  0.37133  0.75697  Biso   1.000  P  1.580982
  P5       1.0000 0.49693  0.96536  0.25387  Biso   1.000  P  1.672385
  P6       1.0000 0.50307  0.03464  0.74613  Biso   1.000  P  1.672014
  V1       1.0000 0.88995  0.87294  0.31796  Biso   1.000  V  2.015868
  V2       1.0000 0.11005  0.12706  0.68204  Biso   1.000  V  2.013250
  V3       1.0000 0.06396  0.05405  0.31921  Biso   1.000  V  2.016876
  V4       1.0000 0.93604  0.94595  0.68079  Biso   1.000  V  2.019323
  V5       1.0000 0.19349  0.87860  0.18821  Biso   1.000  V  2.019979
  V6       1.0000 0.80651  0.12140  0.81179  Biso   1.000  V  2.017780
  V7       1.0000 0.84779  0.05297  0.18775  Biso   1.000  V  2.024734
  V8       1.0000 0.15221  0.94703  0.81225  Biso   1.000  V  2.025403
