data_image0
_cell_length_a       15.5665
_cell_length_b       15.5665
_cell_length_c       12.3201
_cell_angle_alpha    90
_cell_angle_beta     90
_cell_angle_gamma    90

_symmetry_space_group_name_H-M    "P 1"
_symmetry_int_tables_number       1

loop_
  _symmetry_equiv_pos_as_xyz
  'x, y, z'

loop_
  _atom_site_label
  _atom_site_occupancy
  _atom_site_fract_x
  _atom_site_fract_y
  _atom_site_fract_z
  _atom_site_thermal_displace_type
  _atom_site_B_iso_or_equiv
  _atom_site_type_symbol
  _atom_site_charge
  C1       1.0000 0.00000  0.50000  0.18870  Biso   1.000  C  0.081702
  C2       1.0000 0.50000  0.50000  0.43870  Biso   1.000  C  0.081702
  C3       1.0000 0.00000  0.00000  0.06130  Biso   1.000  C  0.081701
  C4       1.0000 0.50000  0.00000  0.81130  Biso   1.000  C  0.081702
  C5       1.0000 0.50000  0.00000  0.68870  Biso   1.000  C  0.081702
  C6       1.0000 0.00000  0.00000  0.93870  Biso   1.000  C  0.081700
  C7       1.0000 0.50000  0.50000  0.56130  Biso   1.000  C  0.081700
  C8       1.0000 0.00000  0.50000  0.31130  Biso   1.000  C  0.081701
  C9       1.0000 0.06782  0.46332  0.13110  Biso   1.000  C  -0.157695
  C10      1.0000 0.53668  0.56782  0.38110  Biso   1.000  C  -0.157694
  C11      1.0000 0.93218  0.53668  0.13110  Biso   1.000  C  -0.157694
  C12      1.0000 0.46332  0.43218  0.38110  Biso   1.000  C  -0.157694
  C13      1.0000 0.06782  0.03668  0.11890  Biso   1.000  C  -0.157694
  C14      1.0000 0.93218  0.96332  0.11890  Biso   1.000  C  -0.157694
  C15      1.0000 0.46332  0.06782  0.86890  Biso   1.000  C  -0.157695
  C16      1.0000 0.53668  0.93218  0.86890  Biso   1.000  C  -0.157694
  C17      1.0000 0.56782  0.96332  0.63110  Biso   1.000  C  -0.157695
  C18      1.0000 0.03668  0.06782  0.88110  Biso   1.000  C  -0.157694
  C19      1.0000 0.43218  0.03668  0.63110  Biso   1.000  C  -0.157694
  C20      1.0000 0.96332  0.93218  0.88110  Biso   1.000  C  -0.157694
  C21      1.0000 0.56782  0.53668  0.61890  Biso   1.000  C  -0.157695
  C22      1.0000 0.43218  0.46332  0.61890  Biso   1.000  C  -0.157694
  C23      1.0000 0.96332  0.56782  0.36890  Biso   1.000  C  -0.157695
  C24      1.0000 0.03668  0.43218  0.36890  Biso   1.000  C  -0.157695
  C25      1.0000 0.06750  0.46143  0.01850  Biso   1.000  C  -0.009739
  C26      1.0000 0.53857  0.56750  0.26850  Biso   1.000  C  -0.009739
  C27      1.0000 0.93250  0.53857  0.01850  Biso   1.000  C  -0.009739
  C28      1.0000 0.46143  0.43250  0.26850  Biso   1.000  C  -0.009739
  C29      1.0000 0.06750  0.03857  0.23150  Biso   1.000  C  -0.009739
  C30      1.0000 0.93250  0.96143  0.23150  Biso   1.000  C  -0.009739
  C31      1.0000 0.46143  0.06750  0.98150  Biso   1.000  C  -0.009739
  C32      1.0000 0.53857  0.93250  0.98150  Biso   1.000  C  -0.009739
  C33      1.0000 0.56750  0.96143  0.51850  Biso   1.000  C  -0.009739
  C34      1.0000 0.03857  0.06750  0.76850  Biso   1.000  C  -0.009739
  C35      1.0000 0.43250  0.03857  0.51850  Biso   1.000  C  -0.009739
  C36      1.0000 0.96143  0.93250  0.76850  Biso   1.000  C  -0.009739
  C37      1.0000 0.56750  0.53857  0.73150  Biso   1.000  C  -0.009739
  C38      1.0000 0.43250  0.46143  0.73150  Biso   1.000  C  -0.009739
  C39      1.0000 0.96143  0.56750  0.48150  Biso   1.000  C  -0.009739
  C40      1.0000 0.03857  0.43250  0.48150  Biso   1.000  C  -0.009739
  C41      1.0000 0.00000  0.50000  0.96140  Biso   1.000  C  -0.118455
  C42      1.0000 0.50000  0.50000  0.21140  Biso   1.000  C  -0.118454
  C43      1.0000 0.00000  0.00000  0.28860  Biso   1.000  C  -0.118455
  C44      1.0000 0.50000  0.00000  0.03860  Biso   1.000  C  -0.118455
  C45      1.0000 0.50000  0.00000  0.46140  Biso   1.000  C  -0.118455
  C46      1.0000 0.00000  0.00000  0.71140  Biso   1.000  C  -0.118455
  C47      1.0000 0.50000  0.50000  0.78860  Biso   1.000  C  -0.118455
  C48      1.0000 0.00000  0.50000  0.53860  Biso   1.000  C  -0.118455
  C49      1.0000 0.13719  0.41598  0.95874  Biso   1.000  C  0.616189
  C50      1.0000 0.58402  0.63719  0.20874  Biso   1.000  C  0.616190
  C51      1.0000 0.86281  0.58402  0.95874  Biso   1.000  C  0.616190
  C52      1.0000 0.41598  0.36281  0.20874  Biso   1.000  C  0.616190
  C53      1.0000 0.13719  0.08402  0.29126  Biso   1.000  C  0.616190
  C54      1.0000 0.86281  0.91598  0.29126  Biso   1.000  C  0.616190
  C55      1.0000 0.41598  0.13719  0.04126  Biso   1.000  C  0.616189
  C56      1.0000 0.58402  0.86281  0.04126  Biso   1.000  C  0.616189
  C57      1.0000 0.63719  0.91598  0.45874  Biso   1.000  C  0.616189
  C58      1.0000 0.08402  0.13719  0.70874  Biso   1.000  C  0.616190
  C59      1.0000 0.36281  0.08402  0.45874  Biso   1.000  C  0.616189
  C60      1.0000 0.91598  0.86281  0.70874  Biso   1.000  C  0.616190
  C61      1.0000 0.63719  0.58402  0.79126  Biso   1.000  C  0.616189
  C62      1.0000 0.36281  0.41598  0.79126  Biso   1.000  C  0.616189
  C63      1.0000 0.91598  0.63719  0.54126  Biso   1.000  C  0.616189
  C64      1.0000 0.08402  0.36281  0.54126  Biso   1.000  C  0.616189
  H1       1.0000 0.19260  0.25000  0.12500  Biso   1.000  H  0.436385
  H2       1.0000 0.75000  0.69260  0.37500  Biso   1.000  H  0.436385
  H3       1.0000 0.80740  0.75000  0.12500  Biso   1.000  H  0.436385
  H4       1.0000 0.25000  0.30740  0.37500  Biso   1.000  H  0.436385
  H5       1.0000 0.25000  0.19260  0.87500  Biso   1.000  H  0.436385
  H6       1.0000 0.75000  0.80740  0.87500  Biso   1.000  H  0.436385
  H7       1.0000 0.69260  0.75000  0.62500  Biso   1.000  H  0.436385
  H8       1.0000 0.30740  0.25000  0.62500  Biso   1.000  H  0.436385
  H9       1.0000 0.11400  0.43980  0.16870  Biso   1.000  H  0.119668
  H10      1.0000 0.56020  0.61400  0.41870  Biso   1.000  H  0.119665
  H11      1.0000 0.88600  0.56020  0.16870  Biso   1.000  H  0.119668
  H12      1.0000 0.43980  0.38600  0.41870  Biso   1.000  H  0.119666
  H13      1.0000 0.11400  0.06020  0.08130  Biso   1.000  H  0.119666
  H14      1.0000 0.88600  0.93980  0.08130  Biso   1.000  H  0.119666
  H15      1.0000 0.43980  0.11400  0.83130  Biso   1.000  H  0.119668
  H16      1.0000 0.56020  0.88600  0.83130  Biso   1.000  H  0.119667
  H17      1.0000 0.61400  0.93980  0.66870  Biso   1.000  H  0.119668
  H18      1.0000 0.06020  0.11400  0.91870  Biso   1.000  H  0.119665
  H19      1.0000 0.38600  0.06020  0.66870  Biso   1.000  H  0.119668
  H20      1.0000 0.93980  0.88600  0.91870  Biso   1.000  H  0.119665
  H21      1.0000 0.61400  0.56020  0.58130  Biso   1.000  H  0.119665
  H22      1.0000 0.38600  0.43980  0.58130  Biso   1.000  H  0.119666
  H23      1.0000 0.93980  0.61400  0.33130  Biso   1.000  H  0.119668
  H24      1.0000 0.06020  0.38600  0.33130  Biso   1.000  H  0.119668
  H25      1.0000 0.00000  0.50000  0.88590  Biso   1.000  H  0.139434
  H26      1.0000 0.50000  0.50000  0.13590  Biso   1.000  H  0.139434
  H27      1.0000 0.00000  0.00000  0.36410  Biso   1.000  H  0.139435
  H28      1.0000 0.50000  0.00000  0.11410  Biso   1.000  H  0.139434
  H29      1.0000 0.50000  0.00000  0.38590  Biso   1.000  H  0.139434
  H30      1.0000 0.00000  0.00000  0.63590  Biso   1.000  H  0.139434
  H31      1.0000 0.50000  0.50000  0.86410  Biso   1.000  H  0.139434
  H32      1.0000 0.00000  0.50000  0.61410  Biso   1.000  H  0.139434
  In1      1.0000 0.31203  0.31203  0.00000  Biso   1.000  In  1.600980
  In2      1.0000 0.68797  0.81203  0.25000  Biso   1.000  In  1.600980
  In3      1.0000 0.68797  0.68797  0.00000  Biso   1.000  In  1.600980
  In4      1.0000 0.31203  0.18797  0.25000  Biso   1.000  In  1.600980
  In5      1.0000 0.81203  0.81203  0.50000  Biso   1.000  In  1.600980
  In6      1.0000 0.18797  0.31203  0.75000  Biso   1.000  In  1.600980
  In7      1.0000 0.18797  0.18797  0.50000  Biso   1.000  In  1.600981
  In8      1.0000 0.81203  0.68797  0.75000  Biso   1.000  In  1.600980
  O1       1.0000 0.20853  0.40768  0.00497  Biso   1.000  O  -0.586729
  O2       1.0000 0.59232  0.70853  0.25497  Biso   1.000  O  -0.586727
  O3       1.0000 0.79147  0.59232  0.00497  Biso   1.000  O  -0.586729
  O4       1.0000 0.40768  0.29147  0.25497  Biso   1.000  O  -0.586727
  O5       1.0000 0.20853  0.09232  0.24503  Biso   1.000  O  -0.586727
  O6       1.0000 0.79147  0.90768  0.24503  Biso   1.000  O  -0.586727
  O7       1.0000 0.40768  0.20853  0.99503  Biso   1.000  O  -0.586729
  O8       1.0000 0.59232  0.79147  0.99503  Biso   1.000  O  -0.586729
  O9       1.0000 0.70853  0.90768  0.50497  Biso   1.000  O  -0.586729
  O10      1.0000 0.09232  0.20853  0.75497  Biso   1.000  O  -0.586727
  O11      1.0000 0.29147  0.09232  0.50497  Biso   1.000  O  -0.586729
  O12      1.0000 0.90768  0.79147  0.75497  Biso   1.000  O  -0.586727
  O13      1.0000 0.70853  0.59232  0.74503  Biso   1.000  O  -0.586727
  O14      1.0000 0.29147  0.40768  0.74503  Biso   1.000  O  -0.586727
  O15      1.0000 0.90768  0.70853  0.49503  Biso   1.000  O  -0.586729
  O16      1.0000 0.09232  0.29147  0.49503  Biso   1.000  O  -0.586729
  O17      1.0000 0.11708  0.38895  0.86416  Biso   1.000  O  -0.567160
  O18      1.0000 0.61105  0.61708  0.11416  Biso   1.000  O  -0.567160
  O19      1.0000 0.88292  0.61105  0.86416  Biso   1.000  O  -0.567160
  O20      1.0000 0.38895  0.38292  0.11416  Biso   1.000  O  -0.567160
  O21      1.0000 0.11708  0.11105  0.38584  Biso   1.000  O  -0.567160
  O22      1.0000 0.88292  0.88895  0.38584  Biso   1.000  O  -0.567160
  O23      1.0000 0.38895  0.11708  0.13584  Biso   1.000  O  -0.567160
  O24      1.0000 0.61105  0.88292  0.13584  Biso   1.000  O  -0.567160
  O25      1.0000 0.61708  0.88895  0.36416  Biso   1.000  O  -0.567160
  O26      1.0000 0.11105  0.11708  0.61416  Biso   1.000  O  -0.567160
  O27      1.0000 0.38292  0.11105  0.36416  Biso   1.000  O  -0.567160
  O28      1.0000 0.88895  0.88292  0.61416  Biso   1.000  O  -0.567160
  O29      1.0000 0.61708  0.61105  0.88584  Biso   1.000  O  -0.567160
  O30      1.0000 0.38292  0.38895  0.88584  Biso   1.000  O  -0.567160
  O31      1.0000 0.88895  0.61708  0.63584  Biso   1.000  O  -0.567160
  O32      1.0000 0.11105  0.38292  0.63584  Biso   1.000  O  -0.567160
  O33      1.0000 0.24900  0.25000  0.12500  Biso   1.000  O  -0.969114
  O34      1.0000 0.75000  0.74900  0.37500  Biso   1.000  O  -0.969114
  O35      1.0000 0.75100  0.75000  0.12500  Biso   1.000  O  -0.969114
  O36      1.0000 0.25000  0.25100  0.37500  Biso   1.000  O  -0.969114
  O37      1.0000 0.25000  0.24900  0.87500  Biso   1.000  O  -0.969114
  O38      1.0000 0.75000  0.75100  0.87500  Biso   1.000  O  -0.969114
  O39      1.0000 0.74900  0.75000  0.62500  Biso   1.000  O  -0.969114
  O40      1.0000 0.25100  0.25000  0.62500  Biso   1.000  O  -0.969114
