data_image0
_cell_length_a       20.18
_cell_length_b       21.212
_cell_length_c       8.3079
_cell_angle_alpha    90
_cell_angle_beta     107.612
_cell_angle_gamma    90

_symmetry_space_group_name_H-M    "P 1"
_symmetry_int_tables_number       1

loop_
  _symmetry_equiv_pos_as_xyz
  'x, y, z'

loop_
  _atom_site_label
  _atom_site_occupancy
  _atom_site_fract_x
  _atom_site_fract_y
  _atom_site_fract_z
  _atom_site_thermal_displace_type
  _atom_site_B_iso_or_equiv
  _atom_site_type_symbol
  _atom_site_charge
  Ba1      1.0000 1.00000  0.04349  0.75000  Biso   1.000  Ba  1.541032
  Ba2      1.0000 0.50000  0.54349  0.75000  Biso   1.000  Ba  1.541030
  Ba3      1.0000 0.00000  0.95651  0.25000  Biso   1.000  Ba  1.541032
  Ba4      1.0000 0.50000  0.45651  0.25000  Biso   1.000  Ba  1.541030
  C1       1.0000 0.15770  0.13310  0.48650  Biso   1.000  C  -0.158763
  C2       1.0000 0.84230  0.13310  0.01350  Biso   1.000  C  -0.158762
  C3       1.0000 0.65770  0.63310  0.48650  Biso   1.000  C  -0.158761
  C4       1.0000 0.34230  0.63310  0.01350  Biso   1.000  C  -0.158762
  C5       1.0000 0.84230  0.86690  0.51350  Biso   1.000  C  -0.158762
  C6       1.0000 0.15770  0.86690  0.98650  Biso   1.000  C  -0.158761
  C7       1.0000 0.34230  0.36690  0.51350  Biso   1.000  C  -0.158764
  C8       1.0000 0.65770  0.36690  0.98650  Biso   1.000  C  -0.158762
  C9       1.0000 0.21190  0.17570  0.55960  Biso   1.000  C  0.102848
  C10      1.0000 0.78810  0.17570  0.94040  Biso   1.000  C  0.102847
  C11      1.0000 0.71190  0.67570  0.55960  Biso   1.000  C  0.102847
  C12      1.0000 0.28810  0.67570  0.94040  Biso   1.000  C  0.102847
  C13      1.0000 0.78810  0.82430  0.44040  Biso   1.000  C  0.102847
  C14      1.0000 0.21190  0.82430  0.05960  Biso   1.000  C  0.102847
  C15      1.0000 0.28810  0.32430  0.44040  Biso   1.000  C  0.102848
  C16      1.0000 0.71190  0.32430  0.05960  Biso   1.000  C  0.102848
  C17      1.0000 0.22280  0.22780  0.46350  Biso   1.000  C  -0.016239
  C18      1.0000 0.77720  0.22780  0.03650  Biso   1.000  C  -0.016239
  C19      1.0000 0.72280  0.72780  0.46350  Biso   1.000  C  -0.016239
  C20      1.0000 0.27720  0.72780  0.03650  Biso   1.000  C  -0.016239
  C21      1.0000 0.77720  0.77220  0.53650  Biso   1.000  C  -0.016239
  C22      1.0000 0.22280  0.77220  0.96350  Biso   1.000  C  -0.016240
  C23      1.0000 0.27720  0.27220  0.53650  Biso   1.000  C  -0.016239
  C24      1.0000 0.72280  0.27220  0.96350  Biso   1.000  C  -0.016240
  C25      1.0000 0.18000  0.23580  0.29390  Biso   1.000  C  0.099186
  C26      1.0000 0.82000  0.23580  0.20610  Biso   1.000  C  0.099185
  C27      1.0000 0.68000  0.73580  0.29390  Biso   1.000  C  0.099185
  C28      1.0000 0.32000  0.73580  0.20610  Biso   1.000  C  0.099185
  C29      1.0000 0.82000  0.76420  0.70610  Biso   1.000  C  0.099185
  C30      1.0000 0.18000  0.76420  0.79390  Biso   1.000  C  0.099185
  C31      1.0000 0.32000  0.26420  0.70610  Biso   1.000  C  0.099186
  C32      1.0000 0.68000  0.26420  0.79390  Biso   1.000  C  0.099186
  C33      1.0000 0.19260  0.28880  0.20090  Biso   1.000  C  -0.102626
  C34      1.0000 0.80740  0.28880  0.29910  Biso   1.000  C  -0.102625
  C35      1.0000 0.69260  0.78880  0.20090  Biso   1.000  C  -0.102625
  C36      1.0000 0.30740  0.78880  0.29910  Biso   1.000  C  -0.102625
  C37      1.0000 0.80740  0.71120  0.79910  Biso   1.000  C  -0.102625
  C38      1.0000 0.19260  0.71120  0.70090  Biso   1.000  C  -0.102625
  C39      1.0000 0.30740  0.21120  0.79910  Biso   1.000  C  -0.102626
  C40      1.0000 0.69260  0.21120  0.70090  Biso   1.000  C  -0.102625
  C41      1.0000 0.25640  0.16950  0.72940  Biso   1.000  C  -0.074482
  C42      1.0000 0.74360  0.16950  0.77060  Biso   1.000  C  -0.074481
  C43      1.0000 0.75640  0.66950  0.72940  Biso   1.000  C  -0.074481
  C44      1.0000 0.24360  0.66950  0.77060  Biso   1.000  C  -0.074481
  C45      1.0000 0.74360  0.83050  0.27060  Biso   1.000  C  -0.074480
  C46      1.0000 0.25640  0.83050  0.22940  Biso   1.000  C  -0.074480
  C47      1.0000 0.24360  0.33050  0.27060  Biso   1.000  C  -0.074483
  C48      1.0000 0.75640  0.33050  0.22940  Biso   1.000  C  -0.074481
  C49      1.0000 0.12650  0.19160  0.22380  Biso   1.000  C  -0.192239
  C50      1.0000 0.87350  0.19160  0.27620  Biso   1.000  C  -0.192238
  C51      1.0000 0.62650  0.69160  0.22380  Biso   1.000  C  -0.192237
  C52      1.0000 0.37350  0.69160  0.27620  Biso   1.000  C  -0.192238
  C53      1.0000 0.87350  0.80840  0.77620  Biso   1.000  C  -0.192238
  C54      1.0000 0.12650  0.80840  0.72380  Biso   1.000  C  -0.192237
  C55      1.0000 0.37350  0.30840  0.77620  Biso   1.000  C  -0.192239
  C56      1.0000 0.62650  0.30840  0.72380  Biso   1.000  C  -0.192235
  C57      1.0000 0.11610  0.14190  0.32250  Biso   1.000  C  -0.080722
  C58      1.0000 0.88390  0.14190  0.17750  Biso   1.000  C  -0.080723
  C59      1.0000 0.61610  0.64190  0.32250  Biso   1.000  C  -0.080723
  C60      1.0000 0.38390  0.64190  0.17750  Biso   1.000  C  -0.080723
  C61      1.0000 0.88390  0.85810  0.67750  Biso   1.000  C  -0.080723
  C62      1.0000 0.11610  0.85810  0.82250  Biso   1.000  C  -0.080723
  C63      1.0000 0.38390  0.35810  0.67750  Biso   1.000  C  -0.080722
  C64      1.0000 0.61610  0.35810  0.82250  Biso   1.000  C  -0.080723
  C65      1.0000 0.21650  0.96840  0.67300  Biso   1.000  C  0.130342
  C66      1.0000 0.78350  0.96840  0.82700  Biso   1.000  C  0.130342
  C67      1.0000 0.71650  0.46840  0.67300  Biso   1.000  C  0.130342
  C68      1.0000 0.28350  0.46840  0.82700  Biso   1.000  C  0.130342
  C69      1.0000 0.78350  0.03160  0.32700  Biso   1.000  C  0.130342
  C70      1.0000 0.21650  0.03160  0.17300  Biso   1.000  C  0.130342
  C71      1.0000 0.28350  0.53160  0.32700  Biso   1.000  C  0.130342
  C72      1.0000 0.71650  0.53160  0.17300  Biso   1.000  C  0.130342
  C73      1.0000 0.97650  0.27130  0.00600  Biso   1.000  C  0.123083
  C74      1.0000 0.02350  0.27130  0.49400  Biso   1.000  C  0.123083
  C75      1.0000 0.47650  0.77130  0.00600  Biso   1.000  C  0.123083
  C76      1.0000 0.52350  0.77130  0.49400  Biso   1.000  C  0.123083
  C77      1.0000 0.02350  0.72870  0.99400  Biso   1.000  C  0.123083
  C78      1.0000 0.97650  0.72870  0.50600  Biso   1.000  C  0.123083
  C79      1.0000 0.52350  0.22870  0.99400  Biso   1.000  C  0.123082
  C80      1.0000 0.47650  0.22870  0.50600  Biso   1.000  C  0.123082
  C81      1.0000 0.28530  0.94210  0.69400  Biso   1.000  C  -0.492211
  C82      1.0000 0.71470  0.94210  0.80600  Biso   1.000  C  -0.492212
  C83      1.0000 0.78530  0.44210  0.69400  Biso   1.000  C  -0.492212
  C84      1.0000 0.21470  0.44210  0.80600  Biso   1.000  C  -0.492213
  C85      1.0000 0.71470  0.05790  0.30600  Biso   1.000  C  -0.492213
  C86      1.0000 0.28530  0.05790  0.19400  Biso   1.000  C  -0.492212
  C87      1.0000 0.21470  0.55790  0.30600  Biso   1.000  C  -0.492212
  C88      1.0000 0.78530  0.55790  0.19400  Biso   1.000  C  -0.492212
  C89      1.0000 0.94640  0.33150  0.94700  Biso   1.000  C  -0.486862
  C90      1.0000 0.05360  0.33150  0.55300  Biso   1.000  C  -0.486862
  C91      1.0000 0.44640  0.83150  0.94700  Biso   1.000  C  -0.486861
  C92      1.0000 0.55360  0.83150  0.55300  Biso   1.000  C  -0.486862
  C93      1.0000 0.05360  0.66850  0.05300  Biso   1.000  C  -0.486862
  C94      1.0000 0.94640  0.66850  0.44700  Biso   1.000  C  -0.486861
  C95      1.0000 0.55360  0.16850  0.05300  Biso   1.000  C  -0.486861
  C96      1.0000 0.44640  0.16850  0.44700  Biso   1.000  C  -0.486861
  H1       1.0000 0.16500  0.29460  0.08990  Biso   1.000  H  0.127720
  H2       1.0000 0.83500  0.29460  0.41010  Biso   1.000  H  0.127720
  H3       1.0000 0.66500  0.79460  0.08990  Biso   1.000  H  0.127720
  H4       1.0000 0.33500  0.79460  0.41010  Biso   1.000  H  0.127720
  H5       1.0000 0.83500  0.70540  0.91010  Biso   1.000  H  0.127720
  H6       1.0000 0.16500  0.70540  0.58990  Biso   1.000  H  0.127721
  H7       1.0000 0.33500  0.20540  0.91010  Biso   1.000  H  0.127720
  H8       1.0000 0.66500  0.20540  0.58990  Biso   1.000  H  0.127721
  H9       1.0000 0.25000  0.13560  0.79390  Biso   1.000  H  0.126113
  H10      1.0000 0.75000  0.13560  0.70610  Biso   1.000  H  0.126113
  H11      1.0000 0.75000  0.63560  0.79390  Biso   1.000  H  0.126113
  H12      1.0000 0.25000  0.63560  0.70610  Biso   1.000  H  0.126113
  H13      1.0000 0.75000  0.86440  0.20610  Biso   1.000  H  0.126113
  H14      1.0000 0.25000  0.86440  0.29390  Biso   1.000  H  0.126113
  H15      1.0000 0.25000  0.36440  0.20610  Biso   1.000  H  0.126113
  H16      1.0000 0.75000  0.36440  0.29390  Biso   1.000  H  0.126113
  H17      1.0000 0.08010  0.11380  0.27650  Biso   1.000  H  0.124412
  H18      1.0000 0.91990  0.11380  0.22350  Biso   1.000  H  0.124411
  H19      1.0000 0.58010  0.61380  0.27650  Biso   1.000  H  0.124412
  H20      1.0000 0.41990  0.61380  0.22350  Biso   1.000  H  0.124411
  H21      1.0000 0.91990  0.88620  0.72350  Biso   1.000  H  0.124411
  H22      1.0000 0.08010  0.88620  0.77650  Biso   1.000  H  0.124412
  H23      1.0000 0.41990  0.38620  0.72350  Biso   1.000  H  0.124411
  H24      1.0000 0.58010  0.38620  0.77650  Biso   1.000  H  0.124412
  H25      1.0000 0.18300  0.94470  0.58500  Biso   1.000  H  0.062062
  H26      1.0000 0.81700  0.94470  0.91500  Biso   1.000  H  0.062062
  H27      1.0000 0.68300  0.44470  0.58500  Biso   1.000  H  0.062062
  H28      1.0000 0.31700  0.44470  0.91500  Biso   1.000  H  0.062062
  H29      1.0000 0.81700  0.05530  0.41500  Biso   1.000  H  0.062062
  H30      1.0000 0.18300  0.05530  0.08500  Biso   1.000  H  0.062062
  H31      1.0000 0.31700  0.55530  0.41500  Biso   1.000  H  0.062061
  H32      1.0000 0.68300  0.55530  0.08500  Biso   1.000  H  0.062062
  H33      1.0000 0.20510  0.96190  0.77680  Biso   1.000  H  0.048610
  H34      1.0000 0.79490  0.96190  0.72320  Biso   1.000  H  0.048610
  H35      1.0000 0.70510  0.46190  0.77680  Biso   1.000  H  0.048610
  H36      1.0000 0.29490  0.46190  0.72320  Biso   1.000  H  0.048610
  H37      1.0000 0.79490  0.03810  0.22320  Biso   1.000  H  0.048610
  H38      1.0000 0.20510  0.03810  0.27680  Biso   1.000  H  0.048610
  H39      1.0000 0.29490  0.53810  0.22320  Biso   1.000  H  0.048610
  H40      1.0000 0.70510  0.53810  0.27680  Biso   1.000  H  0.048610
  H41      1.0000 0.98380  0.26870  0.12680  Biso   1.000  H  0.042521
  H42      1.0000 0.01620  0.26870  0.37320  Biso   1.000  H  0.042521
  H43      1.0000 0.48380  0.76870  0.12680  Biso   1.000  H  0.042521
  H44      1.0000 0.51620  0.76870  0.37320  Biso   1.000  H  0.042521
  H45      1.0000 0.01620  0.73130  0.87320  Biso   1.000  H  0.042521
  H46      1.0000 0.98380  0.73130  0.62680  Biso   1.000  H  0.042521
  H47      1.0000 0.51620  0.23130  0.87320  Biso   1.000  H  0.042522
  H48      1.0000 0.48380  0.23130  0.62680  Biso   1.000  H  0.042521
  H49      1.0000 0.94350  0.23870  0.95270  Biso   1.000  H  0.071282
  H50      1.0000 0.05650  0.23870  0.54730  Biso   1.000  H  0.071282
  H51      1.0000 0.44350  0.73870  0.95270  Biso   1.000  H  0.071282
  H52      1.0000 0.55650  0.73870  0.54730  Biso   1.000  H  0.071282
  H53      1.0000 0.05650  0.76130  0.04730  Biso   1.000  H  0.071282
  H54      1.0000 0.94350  0.76130  0.45270  Biso   1.000  H  0.071282
  H55      1.0000 0.55650  0.26130  0.04730  Biso   1.000  H  0.071283
  H56      1.0000 0.44350  0.26130  0.45270  Biso   1.000  H  0.071282
  H57      1.0000 0.30490  0.96120  0.61390  Biso   1.000  H  0.154119
  H58      1.0000 0.69510  0.96120  0.88610  Biso   1.000  H  0.154121
  H59      1.0000 0.80490  0.46120  0.61390  Biso   1.000  H  0.154120
  H60      1.0000 0.19510  0.46120  0.88610  Biso   1.000  H  0.154121
  H61      1.0000 0.69510  0.03880  0.38610  Biso   1.000  H  0.154122
  H62      1.0000 0.30490  0.03880  0.11390  Biso   1.000  H  0.154119
  H63      1.0000 0.19510  0.53880  0.38610  Biso   1.000  H  0.154120
  H64      1.0000 0.80490  0.53880  0.11390  Biso   1.000  H  0.154119
  H65      1.0000 0.28150  0.89740  0.67500  Biso   1.000  H  0.162414
  H66      1.0000 0.71850  0.89740  0.82500  Biso   1.000  H  0.162415
  H67      1.0000 0.78150  0.39740  0.67500  Biso   1.000  H  0.162415
  H68      1.0000 0.21850  0.39740  0.82500  Biso   1.000  H  0.162415
  H69      1.0000 0.71850  0.10260  0.32500  Biso   1.000  H  0.162416
  H70      1.0000 0.28150  0.10260  0.17500  Biso   1.000  H  0.162415
  H71      1.0000 0.21850  0.60260  0.32500  Biso   1.000  H  0.162415
  H72      1.0000 0.78150  0.60260  0.17500  Biso   1.000  H  0.162414
  H73      1.0000 0.31470  0.95030  0.80630  Biso   1.000  H  0.142391
  H74      1.0000 0.68530  0.95030  0.69370  Biso   1.000  H  0.142393
  H75      1.0000 0.81470  0.45030  0.80630  Biso   1.000  H  0.142392
  H76      1.0000 0.18530  0.45030  0.69370  Biso   1.000  H  0.142393
  H77      1.0000 0.68530  0.04970  0.19370  Biso   1.000  H  0.142393
  H78      1.0000 0.31470  0.04970  0.30630  Biso   1.000  H  0.142391
  H79      1.0000 0.18530  0.54970  0.19370  Biso   1.000  H  0.142392
  H80      1.0000 0.81470  0.54970  0.30630  Biso   1.000  H  0.142392
  H81      1.0000 0.93990  0.35500  0.04030  Biso   1.000  H  0.146172
  H82      1.0000 0.06010  0.35500  0.45970  Biso   1.000  H  0.146173
  H83      1.0000 0.43990  0.85500  0.04030  Biso   1.000  H  0.146172
  H84      1.0000 0.56010  0.85500  0.45970  Biso   1.000  H  0.146173
  H85      1.0000 0.06010  0.64500  0.95970  Biso   1.000  H  0.146172
  H86      1.0000 0.93990  0.64500  0.54030  Biso   1.000  H  0.146171
  H87      1.0000 0.56010  0.14500  0.95970  Biso   1.000  H  0.146170
  H88      1.0000 0.43990  0.14500  0.54030  Biso   1.000  H  0.146171
  H89      1.0000 0.90230  0.32550  0.86310  Biso   1.000  H  0.156282
  H90      1.0000 0.09770  0.32550  0.63690  Biso   1.000  H  0.156282
  H91      1.0000 0.40230  0.82550  0.86310  Biso   1.000  H  0.156282
  H92      1.0000 0.59770  0.82550  0.63690  Biso   1.000  H  0.156282
  H93      1.0000 0.09770  0.67450  0.13690  Biso   1.000  H  0.156282
  H94      1.0000 0.90230  0.67450  0.36310  Biso   1.000  H  0.156282
  H95      1.0000 0.59770  0.17450  0.13690  Biso   1.000  H  0.156282
  H96      1.0000 0.40230  0.17450  0.36310  Biso   1.000  H  0.156282
  H97      1.0000 0.97680  0.35440  0.89920  Biso   1.000  H  0.165141
  H98      1.0000 0.02320  0.35440  0.60080  Biso   1.000  H  0.165141
  H99      1.0000 0.47680  0.85440  0.89920  Biso   1.000  H  0.165141
  H100     1.0000 0.52320  0.85440  0.60080  Biso   1.000  H  0.165141
  H101     1.0000 0.02320  0.64560  0.10080  Biso   1.000  H  0.165140
  H102     1.0000 0.97680  0.64560  0.39920  Biso   1.000  H  0.165140
  H103     1.0000 0.52320  0.14560  0.10080  Biso   1.000  H  0.165139
  H104     1.0000 0.47680  0.14560  0.39920  Biso   1.000  H  0.165141
  O1       1.0000 0.02470  0.14057  0.97000  Biso   1.000  O  -0.719987
  O2       1.0000 0.97530  0.14057  0.53000  Biso   1.000  O  -0.719988
  O3       1.0000 0.52470  0.64057  0.97000  Biso   1.000  O  -0.719987
  O4       1.0000 0.47530  0.64057  0.53000  Biso   1.000  O  -0.719987
  O5       1.0000 0.97530  0.85943  0.03000  Biso   1.000  O  -0.719987
  O6       1.0000 0.02470  0.85943  0.47000  Biso   1.000  O  -0.719989
  O7       1.0000 0.47530  0.35943  0.03000  Biso   1.000  O  -0.719984
  O8       1.0000 0.52470  0.35943  0.47000  Biso   1.000  O  -0.719991
  O9       1.0000 0.07828  0.02991  0.49760  Biso   1.000  O  -0.825570
  O10      1.0000 0.92172  0.02991  0.00240  Biso   1.000  O  -0.825570
  O11      1.0000 0.57828  0.52991  0.49760  Biso   1.000  O  -0.825568
  O12      1.0000 0.42172  0.52991  0.00240  Biso   1.000  O  -0.825569
  O13      1.0000 0.92172  0.97009  0.50240  Biso   1.000  O  -0.825569
  O14      1.0000 0.07828  0.97009  0.99760  Biso   1.000  O  -0.825570
  O15      1.0000 0.42172  0.47009  0.50240  Biso   1.000  O  -0.825569
  O16      1.0000 0.57828  0.47009  0.99760  Biso   1.000  O  -0.825570
  O17      1.0000 0.20840  0.02770  0.63430  Biso   1.000  O  -0.367117
  O18      1.0000 0.79160  0.02770  0.86570  Biso   1.000  O  -0.367118
  O19      1.0000 0.70840  0.52770  0.63430  Biso   1.000  O  -0.367117
  O20      1.0000 0.29160  0.52770  0.86570  Biso   1.000  O  -0.367117
  O21      1.0000 0.79160  0.97230  0.36570  Biso   1.000  O  -0.367118
  O22      1.0000 0.20840  0.97230  0.13430  Biso   1.000  O  -0.367117
  O23      1.0000 0.29160  0.47230  0.36570  Biso   1.000  O  -0.367117
  O24      1.0000 0.70840  0.47230  0.13430  Biso   1.000  O  -0.367117
  O25      1.0000 0.13150  0.08841  0.76750  Biso   1.000  O  -0.697625
  O26      1.0000 0.86850  0.08841  0.73250  Biso   1.000  O  -0.697625
  O27      1.0000 0.63150  0.58841  0.76750  Biso   1.000  O  -0.697625
  O28      1.0000 0.36850  0.58841  0.73250  Biso   1.000  O  -0.697624
  O29      1.0000 0.86850  0.91159  0.23250  Biso   1.000  O  -0.697624
  O30      1.0000 0.13150  0.91159  0.26750  Biso   1.000  O  -0.697623
  O31      1.0000 0.36850  0.41159  0.23250  Biso   1.000  O  -0.697620
  O32      1.0000 0.63150  0.41159  0.26750  Biso   1.000  O  -0.697624
  O33      1.0000 0.03960  0.25890  0.97520  Biso   1.000  O  -0.369805
  O34      1.0000 0.96040  0.25890  0.52480  Biso   1.000  O  -0.369804
  O35      1.0000 0.53960  0.75890  0.97520  Biso   1.000  O  -0.369805
  O36      1.0000 0.46040  0.75890  0.52480  Biso   1.000  O  -0.369804
  O37      1.0000 0.96040  0.74110  0.02480  Biso   1.000  O  -0.369804
  O38      1.0000 0.03960  0.74110  0.47520  Biso   1.000  O  -0.369805
  O39      1.0000 0.46040  0.24110  0.02480  Biso   1.000  O  -0.369804
  O40      1.0000 0.53960  0.24110  0.47520  Biso   1.000  O  -0.369804
  O41      1.0000 0.12250  0.19590  0.89460  Biso   1.000  O  -0.528715
  O42      1.0000 0.87750  0.19590  0.60540  Biso   1.000  O  -0.528716
  O43      1.0000 0.62250  0.69590  0.89460  Biso   1.000  O  -0.528717
  O44      1.0000 0.37750  0.69590  0.60540  Biso   1.000  O  -0.528710
  O45      1.0000 0.87750  0.80410  0.10540  Biso   1.000  O  -0.528712
  O46      1.0000 0.12250  0.80410  0.39460  Biso   1.000  O  -0.528713
  O47      1.0000 0.37750  0.30410  0.10540  Biso   1.000  O  -0.528712
  O48      1.0000 0.62250  0.30410  0.39460  Biso   1.000  O  -0.528728
  P1       1.0000 0.07328  0.19328  0.00752  Biso   1.000  P  1.161524
  P2       1.0000 0.92672  0.19328  0.49248  Biso   1.000  P  1.161524
  P3       1.0000 0.57328  0.69328  0.00752  Biso   1.000  P  1.161524
  P4       1.0000 0.42672  0.69328  0.49248  Biso   1.000  P  1.161522
  P5       1.0000 0.92672  0.80672  0.99248  Biso   1.000  P  1.161524
  P6       1.0000 0.07328  0.80672  0.50752  Biso   1.000  P  1.161523
  P7       1.0000 0.42672  0.30672  0.99248  Biso   1.000  P  1.161522
  P8       1.0000 0.57328  0.30672  0.50752  Biso   1.000  P  1.161526
  P9       1.0000 0.13924  0.06654  0.60156  Biso   1.000  P  1.196222
  P10      1.0000 0.86076  0.06654  0.89844  Biso   1.000  P  1.196221
  P11      1.0000 0.63924  0.56654  0.60156  Biso   1.000  P  1.196220
  P12      1.0000 0.36076  0.56654  0.89844  Biso   1.000  P  1.196220
  P13      1.0000 0.86076  0.93346  0.39844  Biso   1.000  P  1.196220
  P14      1.0000 0.13924  0.93346  0.10156  Biso   1.000  P  1.196220
  P15      1.0000 0.36076  0.43346  0.39844  Biso   1.000  P  1.196221
  P16      1.0000 0.63924  0.43346  0.10156  Biso   1.000  P  1.196220
