data_image0
_cell_length_a       11.6092
_cell_length_b       9.0436
_cell_length_c       14.338
_cell_angle_alpha    90
_cell_angle_beta     105.713
_cell_angle_gamma    90

_symmetry_space_group_name_H-M    "P 1"
_symmetry_int_tables_number       1

loop_
  _symmetry_equiv_pos_as_xyz
  'x, y, z'

loop_
  _atom_site_label
  _atom_site_occupancy
  _atom_site_fract_x
  _atom_site_fract_y
  _atom_site_fract_z
  _atom_site_thermal_displace_type
  _atom_site_B_iso_or_equiv
  _atom_site_type_symbol
  _atom_site_charge
  C1       1.0000 0.53040  0.21750  0.98846  Biso   1.000  C  0.101359
  C2       1.0000 0.96960  0.71750  0.51154  Biso   1.000  C  0.100250
  C3       1.0000 0.46960  0.78250  0.01154  Biso   1.000  C  0.100598
  C4       1.0000 0.03040  0.28250  0.48846  Biso   1.000  C  0.097491
  C5       1.0000 0.44200  0.30190  0.92750  Biso   1.000  C  -0.113050
  C6       1.0000 0.05800  0.80190  0.57250  Biso   1.000  C  -0.114717
  C7       1.0000 0.55800  0.69810  0.07250  Biso   1.000  C  -0.113505
  C8       1.0000 0.94200  0.19810  0.42750  Biso   1.000  C  -0.108775
  C9       1.0000 0.47440  0.41610  0.87760  Biso   1.000  C  -0.012375
  C10      1.0000 0.02560  0.91610  0.62240  Biso   1.000  C  -0.013491
  C11      1.0000 0.52560  0.58390  0.12240  Biso   1.000  C  -0.011237
  C12      1.0000 0.97440  0.08390  0.37760  Biso   1.000  C  -0.007433
  C13      1.0000 0.67700  0.35910  0.95330  Biso   1.000  C  0.067791
  C14      1.0000 0.82300  0.85910  0.54670  Biso   1.000  C  0.067879
  C15      1.0000 0.32300  0.64090  0.04670  Biso   1.000  C  0.067360
  C16      1.0000 0.17700  0.14090  0.45330  Biso   1.000  C  0.064823
  C17      1.0000 0.01918  0.70356  0.17637  Biso   1.000  C  -0.094458
  C18      1.0000 0.48082  0.20356  0.32363  Biso   1.000  C  -0.095573
  C19      1.0000 0.98082  0.29644  0.82363  Biso   1.000  C  -0.094494
  C20      1.0000 0.51918  0.79644  0.67637  Biso   1.000  C  -0.086112
  C21      1.0000 0.11600  0.40991  0.25178  Biso   1.000  C  -0.211139
  C22      1.0000 0.38400  0.90991  0.24822  Biso   1.000  C  -0.210610
  C23      1.0000 0.88400  0.59009  0.74822  Biso   1.000  C  -0.210790
  C24      1.0000 0.61600  0.09009  0.75178  Biso   1.000  C  -0.211790
  C25      1.0000 0.08890  0.68130  0.28258  Biso   1.000  C  -0.230305
  C26      1.0000 0.41110  0.18130  0.21742  Biso   1.000  C  -0.230144
  C27      1.0000 0.91110  0.31870  0.71742  Biso   1.000  C  -0.229813
  C28      1.0000 0.58890  0.81870  0.78258  Biso   1.000  C  -0.230275
  C29      1.0000 0.05145  0.43232  0.14480  Biso   1.000  C  -0.094302
  C30      1.0000 0.44855  0.93232  0.35520  Biso   1.000  C  -0.098362
  C31      1.0000 0.94855  0.56768  0.85520  Biso   1.000  C  -0.094847
  C32      1.0000 0.55145  0.06768  0.64480  Biso   1.000  C  -0.096113
  C33      1.0000 0.17872  0.55380  0.29798  Biso   1.000  C  -0.094990
  C34      1.0000 0.32128  0.05380  0.20202  Biso   1.000  C  -0.096803
  C35      1.0000 0.82128  0.44620  0.70202  Biso   1.000  C  -0.096698
  C36      1.0000 0.67872  0.94620  0.79798  Biso   1.000  C  -0.095303
  C37      1.0000 0.96001  0.55836  0.13194  Biso   1.000  C  -0.228698
  C38      1.0000 0.53999  0.05836  0.36806  Biso   1.000  C  -0.229793
  C39      1.0000 0.03999  0.44164  0.86806  Biso   1.000  C  -0.228623
  C40      1.0000 0.46001  0.94164  0.63194  Biso   1.000  C  -0.230266
  C41      1.0000 0.23383  0.52066  0.40419  Biso   1.000  C  0.608972
  C42      1.0000 0.26617  0.02066  0.09581  Biso   1.000  C  0.607251
  C43      1.0000 0.76617  0.47934  0.59581  Biso   1.000  C  0.615032
  C44      1.0000 0.73383  0.97934  0.90419  Biso   1.000  C  0.606787
  C45      1.0000 0.92099  0.82036  0.16833  Biso   1.000  C  0.616059
  C46      1.0000 0.57901  0.32036  0.33167  Biso   1.000  C  0.626261
  C47      1.0000 0.07901  0.17964  0.83167  Biso   1.000  C  0.616398
  C48      1.0000 0.42099  0.67964  0.66833  Biso   1.000  C  0.619090
  C49      1.0000 0.99134  0.28678  0.10543  Biso   1.000  C  0.624869
  C50      1.0000 0.50866  0.78678  0.39457  Biso   1.000  C  0.633183
  C51      1.0000 0.00866  0.71322  0.89457  Biso   1.000  C  0.625168
  C52      1.0000 0.49134  0.21322  0.60543  Biso   1.000  C  0.628896
  C53      1.0000 0.59420  0.44250  0.88980  Biso   1.000  C  -0.144168
  C54      1.0000 0.90580  0.94250  0.61020  Biso   1.000  C  -0.143314
  C55      1.0000 0.40580  0.55750  0.11020  Biso   1.000  C  -0.142973
  C56      1.0000 0.09420  0.05750  0.38980  Biso   1.000  C  -0.138422
  Co1      1.0000 0.78068  0.09122  0.07227  Biso   1.000  Co  1.016766
  Co2      1.0000 0.71932  0.59122  0.42773  Biso   1.000  Co  1.018964
  Co3      1.0000 0.21932  0.90878  0.92773  Biso   1.000  Co  1.017899
  Co4      1.0000 0.28068  0.40878  0.57227  Biso   1.000  Co  0.897524
  Co5      1.0000 0.00000  0.00000  0.00000  Biso   1.000  Co  0.906114
  Co6      1.0000 0.50000  0.50000  0.50000  Biso   1.000  Co  1.088686
  H1       1.0000 0.50800  0.13810  0.02090  Biso   1.000  H  0.097775
  H2       1.0000 0.99200  0.63810  0.47910  Biso   1.000  H  0.096949
  H3       1.0000 0.49200  0.86190  0.97910  Biso   1.000  H  0.097440
  H4       1.0000 0.00800  0.36190  0.52090  Biso   1.000  H  0.103346
  H5       1.0000 0.36170  0.28110  0.92050  Biso   1.000  H  0.127768
  H6       1.0000 0.13830  0.78110  0.57950  Biso   1.000  H  0.127613
  H7       1.0000 0.63830  0.71890  0.07950  Biso   1.000  H  0.127698
  H8       1.0000 0.86170  0.21890  0.42050  Biso   1.000  H  0.131563
  H9       1.0000 0.41670  0.47470  0.83630  Biso   1.000  H  0.114517
  H10      1.0000 0.08330  0.97470  0.66370  Biso   1.000  H  0.114740
  H11      1.0000 0.58330  0.52530  0.16370  Biso   1.000  H  0.115280
  H12      1.0000 0.91670  0.02530  0.33630  Biso   1.000  H  0.117374
  H13      1.0000 0.75760  0.38130  0.96300  Biso   1.000  H  0.083176
  H14      1.0000 0.74240  0.88130  0.53700  Biso   1.000  H  0.084135
  H15      1.0000 0.24240  0.61870  0.03700  Biso   1.000  H  0.083061
  H16      1.0000 0.25760  0.11870  0.46300  Biso   1.000  H  0.089641
  H17      1.0000 0.07440  0.73710  0.13980  Biso   1.000  H  0.084934
  H18      1.0000 0.42560  0.23710  0.36020  Biso   1.000  H  0.082093
  H19      1.0000 0.92560  0.26290  0.86020  Biso   1.000  H  0.084903
  H20      1.0000 0.57440  0.76290  0.63980  Biso   1.000  H  0.083457
  H21      1.0000 0.17500  0.33200  0.25810  Biso   1.000  H  0.106619
  H22      1.0000 0.32500  0.83200  0.24190  Biso   1.000  H  0.105491
  H23      1.0000 0.82500  0.66800  0.74190  Biso   1.000  H  0.106324
  H24      1.0000 0.67500  0.16800  0.75810  Biso   1.000  H  0.106875
  H25      1.0000 0.05870  0.37910  0.28620  Biso   1.000  H  0.122840
  H26      1.0000 0.44130  0.87910  0.21380  Biso   1.000  H  0.123678
  H27      1.0000 0.94130  0.62090  0.71380  Biso   1.000  H  0.124060
  H28      1.0000 0.55870  0.12090  0.78620  Biso   1.000  H  0.123788
  H29      1.0000 0.13150  0.77190  0.30660  Biso   1.000  H  0.101667
  H30      1.0000 0.36850  0.27190  0.19340  Biso   1.000  H  0.100906
  H31      1.0000 0.86850  0.22810  0.69340  Biso   1.000  H  0.101865
  H32      1.0000 0.63150  0.72810  0.80660  Biso   1.000  H  0.102195
  H33      1.0000 0.03260  0.66260  0.32040  Biso   1.000  H  0.126941
  H34      1.0000 0.46740  0.16260  0.17960  Biso   1.000  H  0.127704
  H35      1.0000 0.96740  0.33740  0.67960  Biso   1.000  H  0.126626
  H36      1.0000 0.53260  0.83740  0.82040  Biso   1.000  H  0.128469
  H37      1.0000 0.11050  0.45740  0.10980  Biso   1.000  H  0.088498
  H38      1.0000 0.38950  0.95740  0.39020  Biso   1.000  H  0.086695
  H39      1.0000 0.88950  0.54260  0.89020  Biso   1.000  H  0.088147
  H40      1.0000 0.61050  0.04260  0.60980  Biso   1.000  H  0.088712
  H41      1.0000 0.24240  0.57880  0.26770  Biso   1.000  H  0.096165
  H42      1.0000 0.25760  0.07880  0.23230  Biso   1.000  H  0.093653
  H43      1.0000 0.75760  0.42120  0.73230  Biso   1.000  H  0.095066
  H44      1.0000 0.74240  0.92120  0.76770  Biso   1.000  H  0.094788
  H45      1.0000 0.89810  0.53120  0.16260  Biso   1.000  H  0.129392
  H46      1.0000 0.60190  0.03120  0.33740  Biso   1.000  H  0.128440
  H47      1.0000 0.10190  0.46880  0.83740  Biso   1.000  H  0.129428
  H48      1.0000 0.39810  0.96880  0.66260  Biso   1.000  H  0.129015
  H49      1.0000 0.92240  0.57310  0.06340  Biso   1.000  H  0.103179
  H50      1.0000 0.57760  0.07310  0.43660  Biso   1.000  H  0.102556
  H51      1.0000 0.07760  0.42690  0.93660  Biso   1.000  H  0.103022
  H52      1.0000 0.42240  0.92690  0.56340  Biso   1.000  H  0.103553
  H53      1.0000 0.73680  0.98470  0.21520  Biso   1.000  H  0.401818
  H54      1.0000 0.76320  0.48470  0.28480  Biso   1.000  H  0.402710
  H55      1.0000 0.26320  0.01530  0.78480  Biso   1.000  H  0.402051
  H56      1.0000 0.23680  0.51530  0.71520  Biso   1.000  H  0.399230
  H57      1.0000 0.61850  0.51710  0.85480  Biso   1.000  H  0.113567
  H58      1.0000 0.88150  0.01710  0.64520  Biso   1.000  H  0.114684
  H59      1.0000 0.38150  0.48290  0.14520  Biso   1.000  H  0.114192
  H60      1.0000 0.11850  0.98290  0.35480  Biso   1.000  H  0.117944
  N1       1.0000 0.64702  0.24582  0.00257  Biso   1.000  N  -0.239329
  N2       1.0000 0.85298  0.74582  0.49743  Biso   1.000  N  -0.239690
  N3       1.0000 0.35298  0.75418  0.99743  Biso   1.000  N  -0.239993
  N4       1.0000 0.14702  0.25418  0.50257  Biso   1.000  N  -0.181749
  O1       1.0000 0.84455  0.80081  0.21397  Biso   1.000  O  -0.469913
  O2       1.0000 0.65545  0.30081  0.28603  Biso   1.000  O  -0.479320
  O3       1.0000 0.15545  0.19919  0.78603  Biso   1.000  O  -0.467869
  O4       1.0000 0.34455  0.69919  0.71397  Biso   1.000  O  -0.467729
  O5       1.0000 0.92108  0.93468  0.11526  Biso   1.000  O  -0.598687
  O6       1.0000 0.57892  0.43468  0.38474  Biso   1.000  O  -0.638585
  O7       1.0000 0.07892  0.06532  0.88474  Biso   1.000  O  -0.597153
  O8       1.0000 0.42108  0.56532  0.61526  Biso   1.000  O  -0.583391
  O9       1.0000 0.18545  0.56367  0.46711  Biso   1.000  O  -0.471747
  O10      1.0000 0.31455  0.06367  0.03289  Biso   1.000  O  -0.488940
  O11      1.0000 0.81455  0.43633  0.53289  Biso   1.000  O  -0.488208
  O12      1.0000 0.68545  0.93633  0.96711  Biso   1.000  O  -0.489237
  O13      1.0000 0.32448  0.43283  0.42788  Biso   1.000  O  -0.610149
  O14      1.0000 0.17552  0.93283  0.07212  Biso   1.000  O  -0.596858
  O15      1.0000 0.67552  0.56717  0.57212  Biso   1.000  O  -0.626630
  O16      1.0000 0.82448  0.06717  0.92788  Biso   1.000  O  -0.595910
  O17      1.0000 0.70286  0.05379  0.18177  Biso   1.000  O  -0.732457
  O18      1.0000 0.79714  0.55379  0.31823  Biso   1.000  O  -0.735952
  O19      1.0000 0.29714  0.94621  0.81823  Biso   1.000  O  -0.735835
  O20      1.0000 0.20286  0.44621  0.68177  Biso   1.000  O  -0.721173
  O21      1.0000 0.04441  0.20419  0.05991  Biso   1.000  O  -0.517691
  O22      1.0000 0.45559  0.70419  0.44009  Biso   1.000  O  -0.574646
  O23      1.0000 0.95559  0.79581  0.94009  Biso   1.000  O  -0.518181
  O24      1.0000 0.54441  0.29581  0.55991  Biso   1.000  O  -0.570925
  O25      1.0000 0.89317  0.25869  0.12288  Biso   1.000  O  -0.527644
  O26      1.0000 0.60683  0.75869  0.37712  Biso   1.000  O  -0.526382
  O27      1.0000 0.10683  0.74131  0.87712  Biso   1.000  O  -0.526890
  O28      1.0000 0.39317  0.24131  0.62288  Biso   1.000  O  -0.508863
