
##########################################################################
#               Crystallographic Information Format file
#               Produced by PyCifRW module
#
#  This is a CIF file.  CIF has been adopted by the International
#  Union of Crystallography as the standard for data archiving and
#  transmission.
#
#  For information on this file format, follow the CIF links at
#  http://www.iucr.org
##########################################################################

data_image0

_cell_length_a                          15.374
_cell_length_b                          15.374
_cell_length_c                          15.374
_cell_angle_alpha                       74.8415
_cell_angle_beta                        74.8415
_cell_angle_gamma                       74.8415
_symmetry_space_group_name_H-M          'P 1'
_symmetry_int_tables_number             1
loop_
  _symmetry_equiv_pos_as_xyz
         'x, y, z' 
loop_
  _atom_site_label
  _atom_site_occupancy
  _atom_site_fract_x
  _atom_site_fract_y
  _atom_site_fract_z
  _atom_site_thermal_displace_type
  _atom_site_B_iso_or_equiv
  _atom_site_type_symbol
  _atom_site_charge
         C1        1.0000    0.82927   0.56137   0.01637   Biso      1.000     C          0.596963  
         C2        1.0000    0.43863   0.98363   0.17073   Biso      1.000     C          0.591699  
         C3        1.0000    0.27146   0.40096   0.98156   Biso      1.000     C          -0.007144           
         C4        1.0000    0.32723   0.45463   0.98723   Biso      1.000     C          -0.14084100000000002          
         C5        1.0000    0.17073   0.43863   0.98363   Biso      1.000     C          0.596963  
         C6        1.0000    0.72854   0.01844   0.59904   Biso      1.000     C          -0.007145           
         C7        1.0000    0.67277   0.01277   0.54537   Biso      1.000     C          -0.14084000000000002          
         C8        1.0000    0.82927   0.01637   0.56137   Biso      1.000     C          0.596963  
         C9        1.0000    0.01844   0.59904   0.72854   Biso      1.000     C          -0.007764           
         C10       1.0000    0.01277   0.54537   0.67277   Biso      1.000     C          -0.14102  
         C11       1.0000    0.01637   0.56137   0.82927   Biso      1.000     C          0.596921  
         C12       1.0000    0.59904   0.72854   0.01844   Biso      1.000     C          -0.000618           
         C13       1.0000    0.54537   0.67277   0.01277   Biso      1.000     C          -0.142297           
         C14       1.0000    0.56137   0.82927   0.01637   Biso      1.000     C          0.591699  
         C15       1.0000    0.01844   0.72854   0.59904   Biso      1.000     C          -0.007764           
         C16       1.0000    0.01277   0.67277   0.54537   Biso      1.000     C          -0.141021           
         C17       1.0000    0.01637   0.82927   0.56137   Biso      1.000     C          0.596921  
         C18       1.0000    0.59904   0.01844   0.72854   Biso      1.000     C          -0.000618           
         C19       1.0000    0.54537   0.01277   0.67277   Biso      1.000     C          -0.142297           
         C20       1.0000    0.56137   0.01637   0.82927   Biso      1.000     C          0.591699  
         C21       1.0000    0.72854   0.59904   0.01844   Biso      1.000     C          -0.007145           
         C22       1.0000    0.67277   0.54537   0.01277   Biso      1.000     C          -0.14084000000000002          
         C23       1.0000    0.98156   0.40096   0.27146   Biso      1.000     C          -0.007763           
         C24       1.0000    0.27146   0.98156   0.40096   Biso      1.000     C          -0.007143000000000001         
         C25       1.0000    0.45463   0.98723   0.32723   Biso      1.000     C          -0.14230399999999999          
         C26       1.0000    0.40096   0.98156   0.27146   Biso      1.000     C          -0.000612           
         C27       1.0000    0.98363   0.17073   0.43863   Biso      1.000     C          0.59692   
         C28       1.0000    0.98723   0.32723   0.45463   Biso      1.000     C          -0.141028           
         C29       1.0000    0.69189   0.69189   0.02164   Biso      1.000     C          -0.118725           
         C30       1.0000    0.52313   0.52313   0.00378   Biso      1.000     C          -0.102524           
         C31       1.0000    0.58085   0.58085   0.00960   Biso      1.000     C          0.156203  
         C32       1.0000    0.02164   0.69189   0.69189   Biso      1.000     C          -0.117655           
         C33       1.0000    0.00378   0.52313   0.52313   Biso      1.000     C          -0.102875           
         C34       1.0000    0.00960   0.58085   0.58085   Biso      1.000     C          0.155658  
         C35       1.0000    0.69189   0.02164   0.69189   Biso      1.000     C          -0.118726           
         C36       1.0000    0.52313   0.00378   0.52313   Biso      1.000     C          -0.102523           
         C37       1.0000    0.58085   0.00960   0.58085   Biso      1.000     C          0.156203  
         C38       1.0000    0.30811   0.30811   0.97836   Biso      1.000     C          -0.118725           
         C39       1.0000    0.47687   0.47687   0.99622   Biso      1.000     C          -0.102406           
         C40       1.0000    0.32723   0.98723   0.45463   Biso      1.000     C          -0.14084100000000002          
         C41       1.0000    0.41915   0.41915   0.99040   Biso      1.000     C          0.15618900000000002           
         C42       1.0000    0.47687   0.99622   0.47687   Biso      1.000     C          -0.102406           
         C43       1.0000    0.41915   0.99040   0.41915   Biso      1.000     C          0.15619   
         C44       1.0000    0.97836   0.30811   0.30811   Biso      1.000     C          -0.117656           
         C45       1.0000    0.99622   0.47687   0.47687   Biso      1.000     C          -0.102756           
         C46       1.0000    0.99040   0.41915   0.41915   Biso      1.000     C          0.155643  
         C47       1.0000    0.43863   0.17073   0.98363   Biso      1.000     C          0.591698  
         C48       1.0000    0.45463   0.32723   0.98723   Biso      1.000     C          -0.14230299999999999          
         C49       1.0000    0.40096   0.27146   0.98156   Biso      1.000     C          -0.0006129999999999999        
         C50       1.0000    0.98363   0.43863   0.17073   Biso      1.000     C          0.596921  
         C51       1.0000    0.98723   0.45463   0.32723   Biso      1.000     C          -0.141021           
         C52       1.0000    0.98156   0.27146   0.40096   Biso      1.000     C          -0.007756999999999999         
         C53       1.0000    0.30811   0.97836   0.30811   Biso      1.000     C          -0.118726           
         C54       1.0000    0.17073   0.98363   0.43863   Biso      1.000     C          0.596963  
         Cu1       1.0000    0.99022   0.99022   0.42007   Biso      1.000     Cu          0.881323  
         Cu2       1.0000    0.42007   0.99022   0.99022   Biso      1.000     Cu          0.8416959999999999  
         Cu3       1.0000    0.99022   0.42007   0.99022   Biso      1.000     Cu          0.8813200000000001  
         Cu4       1.0000    0.00978   0.00978   0.57993   Biso      1.000     Cu          0.8813219999999999  
         Cu5       1.0000    0.00978   0.57993   0.00978   Biso      1.000     Cu          0.8813200000000001  
         Cu6       1.0000    0.57993   0.00978   0.00978   Biso      1.000     Cu          0.8417370000000001  
         H1        1.0000    0.72900   0.72900   0.02590   Biso      1.000     H          0.136778  
         H2        1.0000    0.98890   0.30300   0.51640   Biso      1.000     H          0.133822  
         H3        1.0000    0.30300   0.51640   0.98890   Biso      1.000     H          0.133971  
         H4        1.0000    0.69700   0.01110   0.48360   Biso      1.000     H          0.133972  
         H5        1.0000    0.01110   0.48360   0.69700   Biso      1.000     H          0.133822  
         H6        1.0000    0.48360   0.69700   0.01110   Biso      1.000     H          0.134484  
         H7        1.0000    0.51640   0.98890   0.30300   Biso      1.000     H          0.134484  
         H8        1.0000    0.48360   0.01110   0.69700   Biso      1.000     H          0.134484  
         H9        1.0000    0.01110   0.69700   0.48360   Biso      1.000     H          0.133822  
         H10       1.0000    0.72900   0.02590   0.72900   Biso      1.000     H          0.136778  
         H11       1.0000    0.27100   0.27100   0.97410   Biso      1.000     H          0.136777  
         H12       1.0000    0.27100   0.97410   0.27100   Biso      1.000     H          0.136777  
         H13       1.0000    0.97410   0.27100   0.27100   Biso      1.000     H          0.136183  
         H14       1.0000    0.02590   0.72900   0.72900   Biso      1.000     H          0.136182  
         H15       1.0000    0.98890   0.51640   0.30300   Biso      1.000     H          0.133821  
         H16       1.0000    0.30300   0.98890   0.51640   Biso      1.000     H          0.133971  
         H17       1.0000    0.69700   0.48360   0.01110   Biso      1.000     H          0.133972  
         H18       1.0000    0.51640   0.30300   0.98890   Biso      1.000     H          0.134484  
         O1        1.0000    0.02110   0.87571   0.61598   Biso      1.000     O          -0.5236029999999999           
         O2        1.0000    0.99391   0.52097   0.14021   Biso      1.000     O          -0.5344220000000001           
         O3        1.0000    0.97890   0.38402   0.12429   Biso      1.000     O          -0.523602           
         O4        1.0000    0.14021   0.99391   0.52097   Biso      1.000     O          -0.53427  
         O5        1.0000    0.12429   0.97890   0.38402   Biso      1.000     O          -0.523339           
         O6        1.0000    0.85979   0.47903   0.00609   Biso      1.000     O          -0.534271           
         O7        1.0000    0.87571   0.61598   0.02110   Biso      1.000     O          -0.523338           
         O8        1.0000    0.47903   0.00609   0.85979   Biso      1.000     O          -0.526303           
         O9        1.0000    0.61598   0.02110   0.87571   Biso      1.000     O          -0.515882           
         O10       1.0000    0.00609   0.85979   0.47903   Biso      1.000     O          -0.534423           
         O11       1.0000    0.47903   0.85979   0.00609   Biso      1.000     O          -0.526303           
         O12       1.0000    0.97890   0.12429   0.38402   Biso      1.000     O          -0.5236029999999999           
         O13       1.0000    0.00609   0.47903   0.85979   Biso      1.000     O          -0.5344220000000001           
         O14       1.0000    0.02110   0.61598   0.87571   Biso      1.000     O          -0.523602           
         O15       1.0000    0.85979   0.00609   0.47903   Biso      1.000     O          -0.534271           
         O16       1.0000    0.87571   0.02110   0.61598   Biso      1.000     O          -0.5233399999999999           
         O17       1.0000    0.14021   0.52097   0.99391   Biso      1.000     O          -0.53427  
         O18       1.0000    0.12429   0.38402   0.97890   Biso      1.000     O          -0.5233369999999999           
         O19       1.0000    0.52097   0.99391   0.14021   Biso      1.000     O          -0.526315           
         O20       1.0000    0.38402   0.97890   0.12429   Biso      1.000     O          -0.5158689999999999           
         O21       1.0000    0.99391   0.14021   0.52097   Biso      1.000     O          -0.534423           
         O22       1.0000    0.38402   0.12429   0.97890   Biso      1.000     O          -0.5158689999999999           
         O23       1.0000    0.61598   0.87571   0.02110   Biso      1.000     O          -0.515883           
         O24       1.0000    0.52097   0.14021   0.99391   Biso      1.000     O          -0.526315 