data_image0
_cell_length_a       15.4355
_cell_length_b       15.4355
_cell_length_c       22.775
_cell_angle_alpha    90
_cell_angle_beta     90
_cell_angle_gamma    90

_symmetry_space_group_name_H-M    "P 1"
_symmetry_int_tables_number       1

loop_
  _symmetry_equiv_pos_as_xyz
  'x, y, z'

loop_
  _atom_site_label
  _atom_site_occupancy
  _atom_site_fract_x
  _atom_site_fract_y
  _atom_site_fract_z
  _atom_site_thermal_displace_type
  _atom_site_B_iso_or_equiv
  _atom_site_type_symbol
  _atom_site_charge
  C1       1.0000 0.89730  0.38320  0.12060  Biso   1.000  C  0.197800
  C2       1.0000 0.60270  0.61680  0.62060  Biso   1.000  C  0.197665
  C3       1.0000 0.36680  0.14730  0.37060  Biso   1.000  C  0.197789
  C4       1.0000 0.13320  0.85270  0.87060  Biso   1.000  C  0.197701
  C5       1.0000 0.39730  0.88320  0.62060  Biso   1.000  C  0.197828
  C6       1.0000 0.10270  0.11680  0.12060  Biso   1.000  C  0.197374
  C7       1.0000 0.86680  0.64730  0.87060  Biso   1.000  C  0.197608
  C8       1.0000 0.63320  0.35270  0.37060  Biso   1.000  C  0.197786
  C9       1.0000 0.10270  0.61680  0.87940  Biso   1.000  C  0.197712
  C10      1.0000 0.39730  0.38320  0.37940  Biso   1.000  C  0.197770
  C11      1.0000 0.13320  0.35270  0.12940  Biso   1.000  C  0.197594
  C12      1.0000 0.36680  0.64730  0.62940  Biso   1.000  C  0.197820
  C13      1.0000 0.60270  0.11680  0.37940  Biso   1.000  C  0.197781
  C14      1.0000 0.89730  0.88320  0.87940  Biso   1.000  C  0.197650
  C15      1.0000 0.63320  0.85270  0.62940  Biso   1.000  C  0.197775
  C16      1.0000 0.86680  0.14730  0.12940  Biso   1.000  C  0.197306
  C17      1.0000 0.85660  0.41510  0.03490  Biso   1.000  C  0.298228
  C18      1.0000 0.64340  0.58490  0.53490  Biso   1.000  C  0.298208
  C19      1.0000 0.33490  0.10660  0.28490  Biso   1.000  C  0.298251
  C20      1.0000 0.16510  0.89340  0.78490  Biso   1.000  C  0.297738
  C21      1.0000 0.35660  0.91510  0.53490  Biso   1.000  C  0.298265
  C22      1.0000 0.14340  0.08490  0.03490  Biso   1.000  C  0.297969
  C23      1.0000 0.83490  0.60660  0.78490  Biso   1.000  C  0.298257
  C24      1.0000 0.66510  0.39340  0.28490  Biso   1.000  C  0.298234
  C25      1.0000 0.14340  0.58490  0.96510  Biso   1.000  C  0.298223
  C26      1.0000 0.35660  0.41510  0.46510  Biso   1.000  C  0.298226
  C27      1.0000 0.16510  0.39340  0.21510  Biso   1.000  C  0.298258
  C28      1.0000 0.33490  0.60660  0.71510  Biso   1.000  C  0.298198
  C29      1.0000 0.64340  0.08490  0.46510  Biso   1.000  C  0.298223
  C30      1.0000 0.85660  0.91510  0.96510  Biso   1.000  C  0.297523
  C31      1.0000 0.66510  0.89340  0.71510  Biso   1.000  C  0.298218
  C32      1.0000 0.83490  0.10660  0.21510  Biso   1.000  C  0.298097
  C33      1.0000 0.77970  0.42310  0.95200  Biso   1.000  C  0.242069
  C34      1.0000 0.72030  0.57690  0.45200  Biso   1.000  C  0.242091
  C35      1.0000 0.32690  0.02970  0.20200  Biso   1.000  C  0.241950
  C36      1.0000 0.17310  0.97030  0.70200  Biso   1.000  C  0.241980
  C37      1.0000 0.27970  0.92310  0.45200  Biso   1.000  C  0.242154
  C38      1.0000 0.22030  0.07690  0.95200  Biso   1.000  C  0.241598
  C39      1.0000 0.82690  0.52970  0.70200  Biso   1.000  C  0.242057
  C40      1.0000 0.67310  0.47030  0.20200  Biso   1.000  C  0.242102
  C41      1.0000 0.22030  0.57690  0.04800  Biso   1.000  C  0.242088
  C42      1.0000 0.27970  0.42310  0.54800  Biso   1.000  C  0.242052
  C43      1.0000 0.17310  0.47030  0.29800  Biso   1.000  C  0.242112
  C44      1.0000 0.32690  0.52970  0.79800  Biso   1.000  C  0.242158
  C45      1.0000 0.72030  0.07690  0.54800  Biso   1.000  C  0.242099
  C46      1.0000 0.77970  0.92310  0.04800  Biso   1.000  C  0.241931
  C47      1.0000 0.67310  0.97030  0.79800  Biso   1.000  C  0.241909
  C48      1.0000 0.82690  0.02970  0.29800  Biso   1.000  C  0.242055
  C49      1.0000 0.71350  0.35530  0.03170  Biso   1.000  C  0.425019
  C50      1.0000 0.78650  0.64470  0.53170  Biso   1.000  C  0.424991
  C51      1.0000 0.39470  0.96350  0.28170  Biso   1.000  C  0.425014
  C52      1.0000 0.10530  0.03650  0.78170  Biso   1.000  C  0.425180
  C53      1.0000 0.21350  0.85530  0.53170  Biso   1.000  C  0.425005
  C54      1.0000 0.28650  0.14470  0.03170  Biso   1.000  C  0.425389
  C55      1.0000 0.89470  0.46350  0.78170  Biso   1.000  C  0.424970
  C56      1.0000 0.60530  0.53650  0.28170  Biso   1.000  C  0.425012
  C57      1.0000 0.28650  0.64470  0.96830  Biso   1.000  C  0.424951
  C58      1.0000 0.21350  0.35530  0.46830  Biso   1.000  C  0.425014
  C59      1.0000 0.10530  0.53650  0.21830  Biso   1.000  C  0.424989
  C60      1.0000 0.39470  0.46350  0.71830  Biso   1.000  C  0.425064
  C61      1.0000 0.78650  0.14470  0.46830  Biso   1.000  C  0.425018
  C62      1.0000 0.71350  0.85530  0.96830  Biso   1.000  C  0.425530
  C63      1.0000 0.60530  0.03650  0.71830  Biso   1.000  C  0.424975
  C64      1.0000 0.89470  0.96350  0.21830  Biso   1.000  C  0.425124
  C65      1.0000 0.79130  0.37270  0.06290  Biso   1.000  C  -0.060033
  C66      1.0000 0.70870  0.62730  0.56290  Biso   1.000  C  -0.060072
  C67      1.0000 0.37730  0.04130  0.31290  Biso   1.000  C  -0.060081
  C68      1.0000 0.12270  0.95870  0.81290  Biso   1.000  C  -0.060389
  C69      1.0000 0.29130  0.87270  0.56290  Biso   1.000  C  -0.060093
  C70      1.0000 0.20870  0.12730  0.06290  Biso   1.000  C  -0.059669
  C71      1.0000 0.87730  0.54130  0.81290  Biso   1.000  C  -0.060128
  C72      1.0000 0.62270  0.45870  0.31290  Biso   1.000  C  -0.060088
  C73      1.0000 0.20870  0.62730  0.93710  Biso   1.000  C  -0.060077
  C74      1.0000 0.29130  0.37270  0.43710  Biso   1.000  C  -0.060083
  C75      1.0000 0.12270  0.45870  0.18710  Biso   1.000  C  -0.060099
  C76      1.0000 0.37730  0.54130  0.68710  Biso   1.000  C  -0.060049
  C77      1.0000 0.70870  0.12730  0.43710  Biso   1.000  C  -0.060079
  C78      1.0000 0.79130  0.87270  0.93710  Biso   1.000  C  -0.059945
  C79      1.0000 0.62270  0.95870  0.68710  Biso   1.000  C  -0.060106
  C80      1.0000 0.87730  0.04130  0.18710  Biso   1.000  C  -0.060129
  C81      1.0000 0.93680  0.63540  0.04980  Biso   1.000  C  0.723139
  C82      1.0000 0.56320  0.36460  0.54980  Biso   1.000  C  0.723166
  C83      1.0000 0.11460  0.18680  0.29980  Biso   1.000  C  0.723170
  C84      1.0000 0.38540  0.81320  0.79980  Biso   1.000  C  0.723137
  C85      1.0000 0.43680  0.13540  0.54980  Biso   1.000  C  0.723144
  C86      1.0000 0.06320  0.86460  0.04980  Biso   1.000  C  0.724206
  C87      1.0000 0.61460  0.68680  0.79980  Biso   1.000  C  0.723151
  C88      1.0000 0.88540  0.31320  0.29980  Biso   1.000  C  0.723160
  C89      1.0000 0.06320  0.36460  0.95020  Biso   1.000  C  0.723158
  C90      1.0000 0.43680  0.63540  0.45020  Biso   1.000  C  0.723171
  C91      1.0000 0.38540  0.31320  0.20020  Biso   1.000  C  0.723164
  C92      1.0000 0.11460  0.68680  0.70020  Biso   1.000  C  0.723204
  C93      1.0000 0.56320  0.86460  0.45020  Biso   1.000  C  0.723157
  C94      1.0000 0.93680  0.13540  0.95020  Biso   1.000  C  0.724235
  C95      1.0000 0.88540  0.81320  0.70020  Biso   1.000  C  0.723063
  C96      1.0000 0.61460  0.18680  0.20020  Biso   1.000  C  0.723151
  C97      1.0000 0.89070  0.71580  0.07450  Biso   1.000  C  -0.598859
  C98      1.0000 0.60930  0.28420  0.57450  Biso   1.000  C  -0.598852
  C99      1.0000 0.03420  0.14070  0.32450  Biso   1.000  C  -0.598864
  C100     1.0000 0.46580  0.85930  0.82450  Biso   1.000  C  -0.598843
  C101     1.0000 0.39070  0.21580  0.57450  Biso   1.000  C  -0.598850
  C102     1.0000 0.10930  0.78420  0.07450  Biso   1.000  C  -0.597669
  C103     1.0000 0.53420  0.64070  0.82450  Biso   1.000  C  -0.598861
  C104     1.0000 0.96580  0.35930  0.32450  Biso   1.000  C  -0.598852
  C105     1.0000 0.10930  0.28420  0.92550  Biso   1.000  C  -0.598879
  C106     1.0000 0.39070  0.71580  0.42550  Biso   1.000  C  -0.598854
  C107     1.0000 0.46580  0.35930  0.17550  Biso   1.000  C  -0.598875
  C108     1.0000 0.03420  0.64070  0.67550  Biso   1.000  C  -0.598735
  C109     1.0000 0.60930  0.78420  0.42550  Biso   1.000  C  -0.598838
  C110     1.0000 0.89070  0.21580  0.92550  Biso   1.000  C  -0.597744
  C111     1.0000 0.96580  0.85930  0.67550  Biso   1.000  C  -0.598913
  C112     1.0000 0.53420  0.14070  0.17550  Biso   1.000  C  -0.598877
  Co1      1.0000 0.04353  0.48205  0.05604  Biso   1.000  Co  0.738160
  Co2      1.0000 0.45647  0.51795  0.55604  Biso   1.000  Co  0.738047
  Co3      1.0000 0.26795  0.29353  0.30604  Biso   1.000  Co  0.737893
  Co4      1.0000 0.23205  0.70647  0.80604  Biso   1.000  Co  0.738532
  Co5      1.0000 0.54353  0.98205  0.55604  Biso   1.000  Co  0.738179
  Co6      1.0000 0.95647  0.01795  0.05604  Biso   1.000  Co  0.727441
  Co7      1.0000 0.76795  0.79353  0.80604  Biso   1.000  Co  0.737237
  Co8      1.0000 0.73205  0.20647  0.30604  Biso   1.000  Co  0.738132
  Co9      1.0000 0.95647  0.51795  0.94396  Biso   1.000  Co  0.738175
  Co10     1.0000 0.54353  0.48205  0.44396  Biso   1.000  Co  0.738310
  Co11     1.0000 0.23205  0.20647  0.19396  Biso   1.000  Co  0.737173
  Co12     1.0000 0.26795  0.79353  0.69396  Biso   1.000  Co  0.738339
  Co13     1.0000 0.45647  0.01795  0.44396  Biso   1.000  Co  0.738176
  Co14     1.0000 0.04353  0.98205  0.94396  Biso   1.000  Co  0.726765
  Co15     1.0000 0.73205  0.70647  0.69396  Biso   1.000  Co  0.737593
  Co16     1.0000 0.76795  0.29353  0.19396  Biso   1.000  Co  0.738198
  H1       1.0000 0.93230  0.37970  0.15490  Biso   1.000  H  0.088788
  H2       1.0000 0.56770  0.62030  0.65490  Biso   1.000  H  0.088748
  H3       1.0000 0.37030  0.18230  0.40490  Biso   1.000  H  0.088794
  H4       1.0000 0.12970  0.81770  0.90490  Biso   1.000  H  0.088826
  H5       1.0000 0.43230  0.87970  0.65490  Biso   1.000  H  0.088788
  H6       1.0000 0.06770  0.12030  0.15490  Biso   1.000  H  0.089264
  H7       1.0000 0.87030  0.68230  0.90490  Biso   1.000  H  0.088707
  H8       1.0000 0.62970  0.31770  0.40490  Biso   1.000  H  0.088788
  H9       1.0000 0.06770  0.62030  0.84510  Biso   1.000  H  0.088781
  H10      1.0000 0.43230  0.37970  0.34510  Biso   1.000  H  0.088788
  H11      1.0000 0.12970  0.31770  0.09510  Biso   1.000  H  0.088696
  H12      1.0000 0.37030  0.68230  0.59510  Biso   1.000  H  0.088834
  H13      1.0000 0.56770  0.12030  0.34510  Biso   1.000  H  0.088785
  H14      1.0000 0.93230  0.87970  0.84510  Biso   1.000  H  0.089055
  H15      1.0000 0.62970  0.81770  0.59510  Biso   1.000  H  0.088797
  H16      1.0000 0.87030  0.18230  0.09510  Biso   1.000  H  0.088835
  H17      1.0000 0.77470  0.44200  0.91240  Biso   1.000  H  0.068958
  H18      1.0000 0.72530  0.55800  0.41240  Biso   1.000  H  0.068965
  H19      1.0000 0.30800  0.02470  0.16240  Biso   1.000  H  0.068856
  H20      1.0000 0.19200  0.97530  0.66240  Biso   1.000  H  0.068993
  H21      1.0000 0.27470  0.94200  0.41240  Biso   1.000  H  0.068991
  H22      1.0000 0.22530  0.05800  0.91240  Biso   1.000  H  0.069209
  H23      1.0000 0.80800  0.52470  0.66240  Biso   1.000  H  0.068972
  H24      1.0000 0.69200  0.47530  0.16240  Biso   1.000  H  0.068958
  H25      1.0000 0.22530  0.55800  0.08760  Biso   1.000  H  0.068986
  H26      1.0000 0.27470  0.44200  0.58760  Biso   1.000  H  0.068926
  H27      1.0000 0.19200  0.47530  0.33760  Biso   1.000  H  0.068971
  H28      1.0000 0.30800  0.52470  0.83760  Biso   1.000  H  0.068984
  H29      1.0000 0.72530  0.05800  0.58760  Biso   1.000  H  0.068963
  H30      1.0000 0.77470  0.94200  0.08760  Biso   1.000  H  0.069212
  H31      1.0000 0.69200  0.97530  0.83760  Biso   1.000  H  0.068885
  H32      1.0000 0.80800  0.02470  0.33760  Biso   1.000  H  0.068931
  H33      1.0000 0.60370  0.29750  0.03150  Biso   1.000  H  0.351582
  H34      1.0000 0.89630  0.70250  0.53150  Biso   1.000  H  0.351625
  H35      1.0000 0.45250  0.85370  0.28150  Biso   1.000  H  0.351632
  H36      1.0000 0.04750  0.14630  0.78150  Biso   1.000  H  0.351605
  H37      1.0000 0.10370  0.79750  0.53150  Biso   1.000  H  0.351660
  H38      1.0000 0.39630  0.20250  0.03150  Biso   1.000  H  0.351854
  H39      1.0000 0.95250  0.35370  0.78150  Biso   1.000  H  0.351636
  H40      1.0000 0.54750  0.64630  0.28150  Biso   1.000  H  0.351623
  H41      1.0000 0.39630  0.70250  0.96850  Biso   1.000  H  0.351632
  H42      1.0000 0.10370  0.29750  0.46850  Biso   1.000  H  0.351638
  H43      1.0000 0.04750  0.64630  0.21850  Biso   1.000  H  0.351663
  H44      1.0000 0.45250  0.35370  0.71850  Biso   1.000  H  0.351664
  H45      1.0000 0.89630  0.20250  0.46850  Biso   1.000  H  0.351625
  H46      1.0000 0.60370  0.79750  0.96850  Biso   1.000  H  0.351797
  H47      1.0000 0.54750  0.14630  0.71850  Biso   1.000  H  0.351608
  H48      1.0000 0.95250  0.85370  0.21850  Biso   1.000  H  0.351533
  H49      1.0000 0.64800  0.29730  0.09130  Biso   1.000  H  0.341680
  H50      1.0000 0.85200  0.70270  0.59130  Biso   1.000  H  0.341662
  H51      1.0000 0.45270  0.89800  0.34130  Biso   1.000  H  0.341684
  H52      1.0000 0.04730  0.10200  0.84130  Biso   1.000  H  0.341796
  H53      1.0000 0.14800  0.79730  0.59130  Biso   1.000  H  0.341665
  H54      1.0000 0.35200  0.20270  0.09130  Biso   1.000  H  0.341764
  H55      1.0000 0.95270  0.39800  0.84130  Biso   1.000  H  0.341678
  H56      1.0000 0.54730  0.60200  0.34130  Biso   1.000  H  0.341682
  H57      1.0000 0.35200  0.70270  0.90870  Biso   1.000  H  0.341612
  H58      1.0000 0.14800  0.29730  0.40870  Biso   1.000  H  0.341689
  H59      1.0000 0.04730  0.60200  0.15870  Biso   1.000  H  0.341676
  H60      1.0000 0.45270  0.39800  0.65870  Biso   1.000  H  0.341715
  H61      1.0000 0.85200  0.20270  0.40870  Biso   1.000  H  0.341695
  H62      1.0000 0.64800  0.79730  0.90870  Biso   1.000  H  0.341760
  H63      1.0000 0.54730  0.10200  0.65870  Biso   1.000  H  0.341678
  H64      1.0000 0.95270  0.89800  0.15870  Biso   1.000  H  0.341787
  H65      1.0000 0.90890  0.72520  0.11520  Biso   1.000  H  0.167852
  H66      1.0000 0.59110  0.27480  0.61520  Biso   1.000  H  0.167742
  H67      1.0000 0.02480  0.15890  0.36520  Biso   1.000  H  0.167756
  H68      1.0000 0.47520  0.84110  0.86520  Biso   1.000  H  0.167771
  H69      1.0000 0.40890  0.22520  0.61520  Biso   1.000  H  0.167733
  H70      1.0000 0.09110  0.77480  0.11520  Biso   1.000  H  0.167774
  H71      1.0000 0.52480  0.65890  0.86520  Biso   1.000  H  0.167649
  H72      1.0000 0.97520  0.34110  0.36520  Biso   1.000  H  0.167746
  H73      1.0000 0.09110  0.27480  0.88480  Biso   1.000  H  0.167821
  H74      1.0000 0.40890  0.72520  0.38480  Biso   1.000  H  0.167760
  H75      1.0000 0.47520  0.34110  0.13480  Biso   1.000  H  0.167691
  H76      1.0000 0.02480  0.65890  0.63480  Biso   1.000  H  0.167853
  H77      1.0000 0.59110  0.77480  0.38480  Biso   1.000  H  0.167757
  H78      1.0000 0.90890  0.22520  0.88480  Biso   1.000  H  0.167596
  H79      1.0000 0.97520  0.84110  0.63480  Biso   1.000  H  0.167771
  H80      1.0000 0.52480  0.15890  0.13480  Biso   1.000  H  0.167688
  H81      1.0000 0.82790  0.70680  0.07320  Biso   1.000  H  0.190675
  H82      1.0000 0.67210  0.29320  0.57320  Biso   1.000  H  0.190755
  H83      1.0000 0.04320  0.07790  0.32320  Biso   1.000  H  0.190749
  H84      1.0000 0.45680  0.92210  0.82320  Biso   1.000  H  0.190820
  H85      1.0000 0.32790  0.20680  0.57320  Biso   1.000  H  0.190739
  H86      1.0000 0.17210  0.79320  0.07320  Biso   1.000  H  0.190901
  H87      1.0000 0.54320  0.57790  0.82320  Biso   1.000  H  0.190750
  H88      1.0000 0.95680  0.42210  0.32320  Biso   1.000  H  0.190735
  H89      1.0000 0.17210  0.29320  0.92680  Biso   1.000  H  0.190644
  H90      1.0000 0.32790  0.70680  0.42680  Biso   1.000  H  0.190736
  H91      1.0000 0.45680  0.42210  0.17680  Biso   1.000  H  0.190743
  H92      1.0000 0.04320  0.57790  0.67680  Biso   1.000  H  0.190809
  H93      1.0000 0.67210  0.79320  0.42680  Biso   1.000  H  0.190759
  H94      1.0000 0.82790  0.20680  0.92680  Biso   1.000  H  0.190957
  H95      1.0000 0.95680  0.92210  0.67680  Biso   1.000  H  0.190770
  H96      1.0000 0.54320  0.07790  0.17680  Biso   1.000  H  0.190738
  H97      1.0000 0.90600  0.76660  0.05090  Biso   1.000  H  0.182274
  H98      1.0000 0.59400  0.23340  0.55090  Biso   1.000  H  0.182244
  H99      1.0000 0.98340  0.15600  0.30090  Biso   1.000  H  0.182265
  H100     1.0000 0.51660  0.84400  0.80090  Biso   1.000  H  0.182362
  H101     1.0000 0.40600  0.26660  0.55090  Biso   1.000  H  0.182248
  H102     1.0000 0.09400  0.73340  0.05090  Biso   1.000  H  0.182238
  H103     1.0000 0.48340  0.65600  0.80090  Biso   1.000  H  0.182141
  H104     1.0000 0.01660  0.34400  0.30090  Biso   1.000  H  0.182229
  H105     1.0000 0.09400  0.23340  0.94910  Biso   1.000  H  0.182272
  H106     1.0000 0.40600  0.76660  0.44910  Biso   1.000  H  0.182222
  H107     1.0000 0.51660  0.34400  0.19910  Biso   1.000  H  0.182258
  H108     1.0000 0.98340  0.65600  0.69910  Biso   1.000  H  0.182302
  H109     1.0000 0.59400  0.73340  0.44910  Biso   1.000  H  0.182242
  H110     1.0000 0.90600  0.26660  0.94910  Biso   1.000  H  0.182253
  H111     1.0000 0.01660  0.84400  0.69910  Biso   1.000  H  0.182176
  H112     1.0000 0.48340  0.15600  0.19910  Biso   1.000  H  0.182236
  N1       1.0000 0.92660  0.42040  0.07050  Biso   1.000  N  -0.409935
  N2       1.0000 0.57340  0.57960  0.57050  Biso   1.000  N  -0.409969
  N3       1.0000 0.32960  0.17660  0.32050  Biso   1.000  N  -0.409805
  N4       1.0000 0.17040  0.82340  0.82050  Biso   1.000  N  -0.409842
  N5       1.0000 0.42660  0.92040  0.57050  Biso   1.000  N  -0.409781
  N6       1.0000 0.07340  0.07960  0.07050  Biso   1.000  N  -0.402611
  N7       1.0000 0.82960  0.67660  0.82050  Biso   1.000  N  -0.409965
  N8       1.0000 0.67040  0.32340  0.32050  Biso   1.000  N  -0.409854
  N9       1.0000 0.07340  0.57960  0.92950  Biso   1.000  N  -0.409881
  N10      1.0000 0.42660  0.42040  0.42950  Biso   1.000  N  -0.409919
  N11      1.0000 0.17040  0.32340  0.17950  Biso   1.000  N  -0.409818
  N12      1.0000 0.32960  0.67660  0.67950  Biso   1.000  N  -0.409795
  N13      1.0000 0.57340  0.07960  0.42950  Biso   1.000  N  -0.409895
  N14      1.0000 0.92660  0.92040  0.92950  Biso   1.000  N  -0.402554
  N15      1.0000 0.67040  0.82340  0.67950  Biso   1.000  N  -0.409840
  N16      1.0000 0.82960  0.17660  0.17950  Biso   1.000  N  -0.410114
  N17      1.0000 0.85280  0.44510  0.97910  Biso   1.000  N  -0.378413
  N18      1.0000 0.64720  0.55490  0.47910  Biso   1.000  N  -0.378447
  N19      1.0000 0.30490  0.10280  0.22910  Biso   1.000  N  -0.378346
  N20      1.0000 0.19510  0.89720  0.72910  Biso   1.000  N  -0.378242
  N21      1.0000 0.35280  0.94510  0.47910  Biso   1.000  N  -0.378391
  N22      1.0000 0.14720  0.05490  0.97910  Biso   1.000  N  -0.375608
  N23      1.0000 0.80490  0.60280  0.72910  Biso   1.000  N  -0.378312
  N24      1.0000 0.69510  0.39720  0.22910  Biso   1.000  N  -0.378389
  N25      1.0000 0.14720  0.55490  0.02090  Biso   1.000  N  -0.378374
  N26      1.0000 0.35280  0.44510  0.52090  Biso   1.000  N  -0.378429
  N27      1.0000 0.19510  0.39720  0.27090  Biso   1.000  N  -0.378373
  N28      1.0000 0.30490  0.60280  0.77090  Biso   1.000  N  -0.378498
  N29      1.0000 0.64720  0.05490  0.52090  Biso   1.000  N  -0.378421
  N30      1.0000 0.85280  0.94510  0.02090  Biso   1.000  N  -0.375939
  N31      1.0000 0.69510  0.89720  0.77090  Biso   1.000  N  -0.378368
  N32      1.0000 0.80490  0.10280  0.27090  Biso   1.000  N  -0.378497
  N33      1.0000 0.71260  0.37810  0.97260  Biso   1.000  N  -0.458406
  N34      1.0000 0.78740  0.62190  0.47260  Biso   1.000  N  -0.458329
  N35      1.0000 0.37190  0.96260  0.22260  Biso   1.000  N  -0.458370
  N36      1.0000 0.12810  0.03740  0.72260  Biso   1.000  N  -0.458476
  N37      1.0000 0.21260  0.87810  0.47260  Biso   1.000  N  -0.458239
  N38      1.0000 0.28740  0.12190  0.97260  Biso   1.000  N  -0.458488
  N39      1.0000 0.87190  0.46260  0.72260  Biso   1.000  N  -0.458392
  N40      1.0000 0.62810  0.53740  0.22260  Biso   1.000  N  -0.458365
  N41      1.0000 0.28740  0.62190  0.02740  Biso   1.000  N  -0.458333
  N42      1.0000 0.21260  0.37810  0.52740  Biso   1.000  N  -0.458349
  N43      1.0000 0.12810  0.53740  0.27740  Biso   1.000  N  -0.458313
  N44      1.0000 0.37190  0.46260  0.77740  Biso   1.000  N  -0.458209
  N45      1.0000 0.78740  0.12190  0.52740  Biso   1.000  N  -0.458333
  N46      1.0000 0.71260  0.87810  0.02740  Biso   1.000  N  -0.458603
  N47      1.0000 0.62810  0.03740  0.77740  Biso   1.000  N  -0.458455
  N48      1.0000 0.87190  0.96260  0.27740  Biso   1.000  N  -0.458537
  N49      1.0000 0.81730  0.35190  0.11930  Biso   1.000  N  -0.327522
  N50      1.0000 0.68270  0.64810  0.61930  Biso   1.000  N  -0.327521
  N51      1.0000 0.39810  0.06730  0.36930  Biso   1.000  N  -0.327579
  N52      1.0000 0.10190  0.93270  0.86930  Biso   1.000  N  -0.324184
  N53      1.0000 0.31730  0.85190  0.61930  Biso   1.000  N  -0.327604
  N54      1.0000 0.18270  0.14810  0.11930  Biso   1.000  N  -0.326722
  N55      1.0000 0.89810  0.56730  0.86930  Biso   1.000  N  -0.327600
  N56      1.0000 0.60190  0.43270  0.36930  Biso   1.000  N  -0.327585
  N57      1.0000 0.18270  0.64810  0.88070  Biso   1.000  N  -0.327703
  N58      1.0000 0.31730  0.35190  0.38070  Biso   1.000  N  -0.327549
  N59      1.0000 0.10190  0.43270  0.13070  Biso   1.000  N  -0.327550
  N60      1.0000 0.39810  0.56730  0.63070  Biso   1.000  N  -0.327334
  N61      1.0000 0.68270  0.14810  0.38070  Biso   1.000  N  -0.327515
  N62      1.0000 0.81730  0.85190  0.88070  Biso   1.000  N  -0.327101
  N63      1.0000 0.60190  0.93270  0.63070  Biso   1.000  N  -0.327651
  N64      1.0000 0.89810  0.06730  0.13070  Biso   1.000  N  -0.325115
  N65      1.0000 0.64780  0.31190  0.05400  Biso   1.000  N  -0.655713
  N66      1.0000 0.85220  0.68810  0.55400  Biso   1.000  N  -0.655706
  N67      1.0000 0.43810  0.89780  0.30400  Biso   1.000  N  -0.655667
  N68      1.0000 0.06190  0.10220  0.80400  Biso   1.000  N  -0.655474
  N69      1.0000 0.14780  0.81190  0.55400  Biso   1.000  N  -0.655667
  N70      1.0000 0.35220  0.18810  0.05400  Biso   1.000  N  -0.654894
  N71      1.0000 0.93810  0.39780  0.80400  Biso   1.000  N  -0.655680
  N72      1.0000 0.56190  0.60220  0.30400  Biso   1.000  N  -0.655671
  N73      1.0000 0.35220  0.68810  0.94600  Biso   1.000  N  -0.655775
  N74      1.0000 0.14780  0.31190  0.44600  Biso   1.000  N  -0.655652
  N75      1.0000 0.06190  0.60220  0.19600  Biso   1.000  N  -0.655639
  N76      1.0000 0.43810  0.39780  0.69600  Biso   1.000  N  -0.655532
  N77      1.0000 0.85220  0.18810  0.44600  Biso   1.000  N  -0.655647
  N78      1.0000 0.64780  0.81190  0.94600  Biso   1.000  N  -0.654798
  N79      1.0000 0.56190  0.10220  0.69600  Biso   1.000  N  -0.655729
  N80      1.0000 0.93810  0.89780  0.19600  Biso   1.000  N  -0.655588
  O1       1.0000 0.98780  0.59550  0.08170  Biso   1.000  O  -0.566091
  O2       1.0000 0.51220  0.40450  0.58170  Biso   1.000  O  -0.566162
  O3       1.0000 0.15450  0.23780  0.33170  Biso   1.000  O  -0.566103
  O4       1.0000 0.34550  0.76220  0.83170  Biso   1.000  O  -0.565497
  O5       1.0000 0.48780  0.09550  0.58170  Biso   1.000  O  -0.566126
  O6       1.0000 0.01220  0.90450  0.08170  Biso   1.000  O  -0.568895
  O7       1.0000 0.65450  0.73780  0.83170  Biso   1.000  O  -0.566421
  O8       1.0000 0.84550  0.26220  0.33170  Biso   1.000  O  -0.566156
  O9       1.0000 0.01220  0.40450  0.91830  Biso   1.000  O  -0.566091
  O10      1.0000 0.48780  0.59550  0.41830  Biso   1.000  O  -0.566121
  O11      1.0000 0.34550  0.26220  0.16830  Biso   1.000  O  -0.566313
  O12      1.0000 0.15450  0.73780  0.66830  Biso   1.000  O  -0.566052
  O13      1.0000 0.51220  0.90450  0.41830  Biso   1.000  O  -0.566128
  O14      1.0000 0.98780  0.09550  0.91830  Biso   1.000  O  -0.568126
  O15      1.0000 0.84550  0.76220  0.66830  Biso   1.000  O  -0.565965
  O16      1.0000 0.65450  0.23780  0.16830  Biso   1.000  O  -0.566096
  O17      1.0000 0.91940  0.61540  0.99770  Biso   1.000  O  -0.561527
  O18      1.0000 0.58060  0.38460  0.49770  Biso   1.000  O  -0.561393
  O19      1.0000 0.13460  0.16940  0.24770  Biso   1.000  O  -0.561521
  O20      1.0000 0.36540  0.83060  0.74770  Biso   1.000  O  -0.560981
  O21      1.0000 0.41940  0.11540  0.49770  Biso   1.000  O  -0.561443
  O22      1.0000 0.08060  0.88460  0.99770  Biso   1.000  O  -0.561519
  O23      1.0000 0.63460  0.66940  0.74770  Biso   1.000  O  -0.561693
  O24      1.0000 0.86540  0.33060  0.24770  Biso   1.000  O  -0.561524
  O25      1.0000 0.08060  0.38460  0.00230  Biso   1.000  O  -0.561547
  O26      1.0000 0.41940  0.61540  0.50230  Biso   1.000  O  -0.561532
  O27      1.0000 0.36540  0.33060  0.25230  Biso   1.000  O  -0.561406
  O28      1.0000 0.13460  0.66940  0.75230  Biso   1.000  O  -0.561071
  O29      1.0000 0.58060  0.88460  0.50230  Biso   1.000  O  -0.561434
  O30      1.0000 0.91940  0.11540  0.00230  Biso   1.000  O  -0.562912
  O31      1.0000 0.86540  0.83060  0.75230  Biso   1.000  O  -0.561301
  O32      1.0000 0.63460  0.16940  0.25230  Biso   1.000  O  -0.561357
